 <routes>
            <vType id="car" accel="0.8" decel="4.5" sigma="0.5" length="5" minGap="2.5" maxSpeed="20.0" />
            <route id="n_w" edges="nptocp cptowp"/>
            <route id="n_s" edges="nptocp cptosp"/>
            <route id="n_e" edges="nptocp cptoep"/>
            <route id="e_n" edges="eptocp cptonp"/>
            <route id="e_w" edges="eptocp cptowp"/>
            <route id="e_s" edges="eptocp cptosp"/>
            <route id="s_e" edges="sptocp cptoep"/>
            <route id="s_n" edges="sptocp cptonp"/>
            <route id="s_w" edges="sptocp cptowp"/>
            <route id="w_s" edges="wptocp cptosp"/>
            <route id="w_e" edges="wptocp cptoep"/>
            <route id="w_n" edges="wptocp cptonp"/>
    <vehicle id="w_s_0" type="car" route="w_s" depart="0" departLane="random" departSpeed="10" />
    <vehicle id="n_w_1" type="car" route="n_w" depart="2" departLane="random" departSpeed="10" />
    <vehicle id="e_s_2" type="car" route="e_s" depart="4" departLane="random" departSpeed="10" />
    <vehicle id="s_w_3" type="car" route="s_w" depart="6" departLane="random" departSpeed="10" />
    <vehicle id="e_w_4" type="car" route="e_w" depart="8" departLane="random" departSpeed="10" />
    <vehicle id="w_n_5" type="car" route="w_n" depart="10" departLane="random" departSpeed="10" />
    <vehicle id="n_w_6" type="car" route="n_w" depart="12" departLane="random" departSpeed="10" />
    <vehicle id="w_n_7" type="car" route="w_n" depart="14" departLane="random" departSpeed="10" />
    <vehicle id="s_e_8" type="car" route="s_e" depart="16" departLane="random" departSpeed="10" />
    <vehicle id="e_s_9" type="car" route="e_s" depart="18" departLane="random" departSpeed="10" />
    <vehicle id="e_w_10" type="car" route="e_w" depart="20" departLane="random" departSpeed="10" />
    <vehicle id="w_n_11" type="car" route="w_n" depart="22" departLane="random" departSpeed="10" />
    <vehicle id="n_e_12" type="car" route="n_e" depart="24" departLane="random" departSpeed="10" />
    <vehicle id="w_s_13" type="car" route="w_s" depart="26" departLane="random" departSpeed="10" />
    <vehicle id="n_s_14" type="car" route="n_s" depart="28" departLane="random" departSpeed="10" />
    <vehicle id="e_s_15" type="car" route="e_s" depart="30" departLane="random" departSpeed="10" />
    <vehicle id="s_e_16" type="car" route="s_e" depart="32" departLane="random" departSpeed="10" />
    <vehicle id="e_w_17" type="car" route="e_w" depart="34" departLane="random" departSpeed="10" />
    <vehicle id="e_s_18" type="car" route="e_s" depart="36" departLane="random" departSpeed="10" />
    <vehicle id="e_w_19" type="car" route="e_w" depart="38" departLane="random" departSpeed="10" />
    <vehicle id="e_s_20" type="car" route="e_s" depart="40" departLane="random" departSpeed="10" />
    <vehicle id="e_w_21" type="car" route="e_w" depart="42" departLane="random" departSpeed="10" />
    <vehicle id="e_n_22" type="car" route="e_n" depart="44" departLane="random" departSpeed="10" />
    <vehicle id="n_s_23" type="car" route="n_s" depart="46" departLane="random" departSpeed="10" />
    <vehicle id="w_n_24" type="car" route="w_n" depart="48" departLane="random" departSpeed="10" />
    <vehicle id="s_e_25" type="car" route="s_e" depart="50" departLane="random" departSpeed="10" />
    <vehicle id="w_e_26" type="car" route="w_e" depart="52" departLane="random" departSpeed="10" />
    <vehicle id="n_e_27" type="car" route="n_e" depart="54" departLane="random" departSpeed="10" />
    <vehicle id="e_s_28" type="car" route="e_s" depart="56" departLane="random" departSpeed="10" />
    <vehicle id="s_n_29" type="car" route="s_n" depart="58" departLane="random" departSpeed="10" />
    <vehicle id="s_n_30" type="car" route="s_n" depart="60" departLane="random" departSpeed="10" />
    <vehicle id="e_n_31" type="car" route="e_n" depart="62" departLane="random" departSpeed="10" />
    <vehicle id="s_w_32" type="car" route="s_w" depart="64" departLane="random" departSpeed="10" />
    <vehicle id="s_e_33" type="car" route="s_e" depart="66" departLane="random" departSpeed="10" />
    <vehicle id="n_w_34" type="car" route="n_w" depart="68" departLane="random" departSpeed="10" />
    <vehicle id="s_n_35" type="car" route="s_n" depart="70" departLane="random" departSpeed="10" />
    <vehicle id="e_s_36" type="car" route="e_s" depart="72" departLane="random" departSpeed="10" />
    <vehicle id="n_e_37" type="car" route="n_e" depart="74" departLane="random" departSpeed="10" />
    <vehicle id="e_s_38" type="car" route="e_s" depart="76" departLane="random" departSpeed="10" />
    <vehicle id="n_s_39" type="car" route="n_s" depart="78" departLane="random" departSpeed="10" />
    <vehicle id="s_w_40" type="car" route="s_w" depart="80" departLane="random" departSpeed="10" />
    <vehicle id="n_w_41" type="car" route="n_w" depart="82" departLane="random" departSpeed="10" />
    <vehicle id="e_s_42" type="car" route="e_s" depart="84" departLane="random" departSpeed="10" />
    <vehicle id="e_w_43" type="car" route="e_w" depart="86" departLane="random" departSpeed="10" />
    <vehicle id="e_s_44" type="car" route="e_s" depart="88" departLane="random" departSpeed="10" />
    <vehicle id="e_n_45" type="car" route="e_n" depart="90" departLane="random" departSpeed="10" />
    <vehicle id="w_n_46" type="car" route="w_n" depart="92" departLane="random" departSpeed="10" />
    <vehicle id="e_s_47" type="car" route="e_s" depart="94" departLane="random" departSpeed="10" />
    <vehicle id="w_s_48" type="car" route="w_s" depart="96" departLane="random" departSpeed="10" />
    <vehicle id="s_e_49" type="car" route="s_e" depart="98" departLane="random" departSpeed="10" />
    <vehicle id="e_w_50" type="car" route="e_w" depart="100" departLane="random" departSpeed="10" />
    <vehicle id="e_s_51" type="car" route="e_s" depart="102" departLane="random" departSpeed="10" />
    <vehicle id="n_e_52" type="car" route="n_e" depart="104" departLane="random" departSpeed="10" />
    <vehicle id="s_n_53" type="car" route="s_n" depart="106" departLane="random" departSpeed="10" />
    <vehicle id="s_w_54" type="car" route="s_w" depart="108" departLane="random" departSpeed="10" />
    <vehicle id="s_e_55" type="car" route="s_e" depart="110" departLane="random" departSpeed="10" />
    <vehicle id="w_e_56" type="car" route="w_e" depart="112" departLane="random" departSpeed="10" />
    <vehicle id="e_s_57" type="car" route="e_s" depart="114" departLane="random" departSpeed="10" />
    <vehicle id="s_w_58" type="car" route="s_w" depart="116" departLane="random" departSpeed="10" />
    <vehicle id="n_w_59" type="car" route="n_w" depart="118" departLane="random" departSpeed="10" />
    <vehicle id="s_e_60" type="car" route="s_e" depart="120" departLane="random" departSpeed="10" />
    <vehicle id="w_s_61" type="car" route="w_s" depart="122" departLane="random" departSpeed="10" />
    <vehicle id="e_w_62" type="car" route="e_w" depart="124" departLane="random" departSpeed="10" />
    <vehicle id="n_e_63" type="car" route="n_e" depart="126" departLane="random" departSpeed="10" />
    <vehicle id="n_s_64" type="car" route="n_s" depart="128" departLane="random" departSpeed="10" />
    <vehicle id="e_n_65" type="car" route="e_n" depart="130" departLane="random" departSpeed="10" />
    <vehicle id="s_e_66" type="car" route="s_e" depart="132" departLane="random" departSpeed="10" />
    <vehicle id="n_w_67" type="car" route="n_w" depart="134" departLane="random" departSpeed="10" />
    <vehicle id="n_e_68" type="car" route="n_e" depart="136" departLane="random" departSpeed="10" />
    <vehicle id="n_w_69" type="car" route="n_w" depart="138" departLane="random" departSpeed="10" />
    <vehicle id="n_w_70" type="car" route="n_w" depart="140" departLane="random" departSpeed="10" />
    <vehicle id="n_e_71" type="car" route="n_e" depart="142" departLane="random" departSpeed="10" />
    <vehicle id="s_n_72" type="car" route="s_n" depart="144" departLane="random" departSpeed="10" />
    <vehicle id="w_n_73" type="car" route="w_n" depart="146" departLane="random" departSpeed="10" />
    <vehicle id="w_e_74" type="car" route="w_e" depart="148" departLane="random" departSpeed="10" />
    <vehicle id="n_w_75" type="car" route="n_w" depart="150" departLane="random" departSpeed="10" />
    <vehicle id="n_w_76" type="car" route="n_w" depart="152" departLane="random" departSpeed="10" />
    <vehicle id="n_e_77" type="car" route="n_e" depart="154" departLane="random" departSpeed="10" />
    <vehicle id="n_e_78" type="car" route="n_e" depart="156" departLane="random" departSpeed="10" />
    <vehicle id="e_s_79" type="car" route="e_s" depart="158" departLane="random" departSpeed="10" />
    <vehicle id="s_e_80" type="car" route="s_e" depart="160" departLane="random" departSpeed="10" />
    <vehicle id="s_e_81" type="car" route="s_e" depart="162" departLane="random" departSpeed="10" />
    <vehicle id="e_s_82" type="car" route="e_s" depart="164" departLane="random" departSpeed="10" />
    <vehicle id="e_s_83" type="car" route="e_s" depart="166" departLane="random" departSpeed="10" />
    <vehicle id="s_e_84" type="car" route="s_e" depart="168" departLane="random" departSpeed="10" />
    <vehicle id="e_n_85" type="car" route="e_n" depart="170" departLane="random" departSpeed="10" />
    <vehicle id="n_e_86" type="car" route="n_e" depart="172" departLane="random" departSpeed="10" />
    <vehicle id="n_e_87" type="car" route="n_e" depart="174" departLane="random" departSpeed="10" />
    <vehicle id="s_n_88" type="car" route="s_n" depart="176" departLane="random" departSpeed="10" />
    <vehicle id="e_s_89" type="car" route="e_s" depart="178" departLane="random" departSpeed="10" />
    <vehicle id="n_w_90" type="car" route="n_w" depart="180" departLane="random" departSpeed="10" />
    <vehicle id="n_s_91" type="car" route="n_s" depart="182" departLane="random" departSpeed="10" />
    <vehicle id="w_s_92" type="car" route="w_s" depart="184" departLane="random" departSpeed="10" />
    <vehicle id="s_n_93" type="car" route="s_n" depart="186" departLane="random" departSpeed="10" />
    <vehicle id="w_s_94" type="car" route="w_s" depart="188" departLane="random" departSpeed="10" />
    <vehicle id="n_w_95" type="car" route="n_w" depart="190" departLane="random" departSpeed="10" />
    <vehicle id="w_n_96" type="car" route="w_n" depart="192" departLane="random" departSpeed="10" />
    <vehicle id="w_n_97" type="car" route="w_n" depart="194" departLane="random" departSpeed="10" />
    <vehicle id="n_s_98" type="car" route="n_s" depart="196" departLane="random" departSpeed="10" />
    <vehicle id="n_e_99" type="car" route="n_e" depart="198" departLane="random" departSpeed="10" />
    <vehicle id="s_e_100" type="car" route="s_e" depart="200" departLane="random" departSpeed="10" />
    <vehicle id="w_e_101" type="car" route="w_e" depart="202" departLane="random" departSpeed="10" />
    <vehicle id="e_n_102" type="car" route="e_n" depart="204" departLane="random" departSpeed="10" />
    <vehicle id="n_e_103" type="car" route="n_e" depart="206" departLane="random" departSpeed="10" />
    <vehicle id="n_e_104" type="car" route="n_e" depart="208" departLane="random" departSpeed="10" />
    <vehicle id="n_e_105" type="car" route="n_e" depart="210" departLane="random" departSpeed="10" />
    <vehicle id="w_s_106" type="car" route="w_s" depart="212" departLane="random" departSpeed="10" />
    <vehicle id="e_n_107" type="car" route="e_n" depart="214" departLane="random" departSpeed="10" />
    <vehicle id="n_e_108" type="car" route="n_e" depart="216" departLane="random" departSpeed="10" />
    <vehicle id="s_e_109" type="car" route="s_e" depart="218" departLane="random" departSpeed="10" />
    <vehicle id="w_s_110" type="car" route="w_s" depart="220" departLane="random" departSpeed="10" />
    <vehicle id="e_s_111" type="car" route="e_s" depart="222" departLane="random" departSpeed="10" />
    <vehicle id="w_n_112" type="car" route="w_n" depart="224" departLane="random" departSpeed="10" />
    <vehicle id="n_w_113" type="car" route="n_w" depart="226" departLane="random" departSpeed="10" />
    <vehicle id="e_s_114" type="car" route="e_s" depart="228" departLane="random" departSpeed="10" />
    <vehicle id="w_n_115" type="car" route="w_n" depart="230" departLane="random" departSpeed="10" />
    <vehicle id="n_e_116" type="car" route="n_e" depart="232" departLane="random" departSpeed="10" />
    <vehicle id="n_e_117" type="car" route="n_e" depart="234" departLane="random" departSpeed="10" />
    <vehicle id="e_w_118" type="car" route="e_w" depart="236" departLane="random" departSpeed="10" />
    <vehicle id="w_e_119" type="car" route="w_e" depart="238" departLane="random" departSpeed="10" />
    <vehicle id="s_w_120" type="car" route="s_w" depart="240" departLane="random" departSpeed="10" />
    <vehicle id="s_n_121" type="car" route="s_n" depart="242" departLane="random" departSpeed="10" />
    <vehicle id="w_s_122" type="car" route="w_s" depart="244" departLane="random" departSpeed="10" />
    <vehicle id="e_s_123" type="car" route="e_s" depart="246" departLane="random" departSpeed="10" />
    <vehicle id="s_e_124" type="car" route="s_e" depart="248" departLane="random" departSpeed="10" />
    <vehicle id="n_e_125" type="car" route="n_e" depart="250" departLane="random" departSpeed="10" />
    <vehicle id="s_n_126" type="car" route="s_n" depart="252" departLane="random" departSpeed="10" />
    <vehicle id="n_s_127" type="car" route="n_s" depart="254" departLane="random" departSpeed="10" />
    <vehicle id="w_e_128" type="car" route="w_e" depart="256" departLane="random" departSpeed="10" />
    <vehicle id="n_e_129" type="car" route="n_e" depart="258" departLane="random" departSpeed="10" />
    <vehicle id="s_w_130" type="car" route="s_w" depart="260" departLane="random" departSpeed="10" />
    <vehicle id="s_e_131" type="car" route="s_e" depart="262" departLane="random" departSpeed="10" />
    <vehicle id="s_w_132" type="car" route="s_w" depart="264" departLane="random" departSpeed="10" />
    <vehicle id="e_n_133" type="car" route="e_n" depart="266" departLane="random" departSpeed="10" />
    <vehicle id="e_n_134" type="car" route="e_n" depart="268" departLane="random" departSpeed="10" />
    <vehicle id="e_s_135" type="car" route="e_s" depart="270" departLane="random" departSpeed="10" />
    <vehicle id="n_w_136" type="car" route="n_w" depart="272" departLane="random" departSpeed="10" />
    <vehicle id="e_w_137" type="car" route="e_w" depart="274" departLane="random" departSpeed="10" />
    <vehicle id="w_n_138" type="car" route="w_n" depart="276" departLane="random" departSpeed="10" />
    <vehicle id="e_n_139" type="car" route="e_n" depart="278" departLane="random" departSpeed="10" />
    <vehicle id="n_s_140" type="car" route="n_s" depart="280" departLane="random" departSpeed="10" />
    <vehicle id="n_s_141" type="car" route="n_s" depart="282" departLane="random" departSpeed="10" />
    <vehicle id="s_w_142" type="car" route="s_w" depart="284" departLane="random" departSpeed="10" />
    <vehicle id="s_e_143" type="car" route="s_e" depart="286" departLane="random" departSpeed="10" />
    <vehicle id="s_n_144" type="car" route="s_n" depart="288" departLane="random" departSpeed="10" />
    <vehicle id="e_n_145" type="car" route="e_n" depart="290" departLane="random" departSpeed="10" />
    <vehicle id="w_n_146" type="car" route="w_n" depart="292" departLane="random" departSpeed="10" />
    <vehicle id="s_e_147" type="car" route="s_e" depart="294" departLane="random" departSpeed="10" />
    <vehicle id="e_s_148" type="car" route="e_s" depart="296" departLane="random" departSpeed="10" />
    <vehicle id="s_w_149" type="car" route="s_w" depart="298" departLane="random" departSpeed="10" />
    <vehicle id="n_e_150" type="car" route="n_e" depart="300" departLane="random" departSpeed="10" />
    <vehicle id="e_n_151" type="car" route="e_n" depart="302" departLane="random" departSpeed="10" />
    <vehicle id="n_s_152" type="car" route="n_s" depart="304" departLane="random" departSpeed="10" />
    <vehicle id="e_n_153" type="car" route="e_n" depart="306" departLane="random" departSpeed="10" />
    <vehicle id="s_w_154" type="car" route="s_w" depart="308" departLane="random" departSpeed="10" />
    <vehicle id="s_w_155" type="car" route="s_w" depart="310" departLane="random" departSpeed="10" />
    <vehicle id="n_s_156" type="car" route="n_s" depart="312" departLane="random" departSpeed="10" />
    <vehicle id="n_e_157" type="car" route="n_e" depart="314" departLane="random" departSpeed="10" />
    <vehicle id="e_w_158" type="car" route="e_w" depart="316" departLane="random" departSpeed="10" />
    <vehicle id="n_w_159" type="car" route="n_w" depart="318" departLane="random" departSpeed="10" />
    <vehicle id="n_s_160" type="car" route="n_s" depart="320" departLane="random" departSpeed="10" />
    <vehicle id="w_e_161" type="car" route="w_e" depart="322" departLane="random" departSpeed="10" />
    <vehicle id="s_n_162" type="car" route="s_n" depart="324" departLane="random" departSpeed="10" />
    <vehicle id="n_s_163" type="car" route="n_s" depart="326" departLane="random" departSpeed="10" />
    <vehicle id="n_w_164" type="car" route="n_w" depart="328" departLane="random" departSpeed="10" />
    <vehicle id="w_n_165" type="car" route="w_n" depart="330" departLane="random" departSpeed="10" />
    <vehicle id="e_s_166" type="car" route="e_s" depart="332" departLane="random" departSpeed="10" />
    <vehicle id="s_w_167" type="car" route="s_w" depart="334" departLane="random" departSpeed="10" />
    <vehicle id="e_w_168" type="car" route="e_w" depart="336" departLane="random" departSpeed="10" />
    <vehicle id="s_e_169" type="car" route="s_e" depart="338" departLane="random" departSpeed="10" />
    <vehicle id="s_w_170" type="car" route="s_w" depart="340" departLane="random" departSpeed="10" />
    <vehicle id="e_w_171" type="car" route="e_w" depart="342" departLane="random" departSpeed="10" />
    <vehicle id="n_e_172" type="car" route="n_e" depart="344" departLane="random" departSpeed="10" />
    <vehicle id="e_n_173" type="car" route="e_n" depart="346" departLane="random" departSpeed="10" />
    <vehicle id="s_w_174" type="car" route="s_w" depart="348" departLane="random" departSpeed="10" />
    <vehicle id="s_n_175" type="car" route="s_n" depart="350" departLane="random" departSpeed="10" />
    <vehicle id="e_w_176" type="car" route="e_w" depart="352" departLane="random" departSpeed="10" />
    <vehicle id="e_s_177" type="car" route="e_s" depart="354" departLane="random" departSpeed="10" />
    <vehicle id="e_w_178" type="car" route="e_w" depart="356" departLane="random" departSpeed="10" />
    <vehicle id="n_s_179" type="car" route="n_s" depart="358" departLane="random" departSpeed="10" />
    <vehicle id="w_n_180" type="car" route="w_n" depart="360" departLane="random" departSpeed="10" />
    <vehicle id="w_n_181" type="car" route="w_n" depart="362" departLane="random" departSpeed="10" />
    <vehicle id="e_w_182" type="car" route="e_w" depart="364" departLane="random" departSpeed="10" />
    <vehicle id="n_e_183" type="car" route="n_e" depart="366" departLane="random" departSpeed="10" />
    <vehicle id="n_s_184" type="car" route="n_s" depart="368" departLane="random" departSpeed="10" />
    <vehicle id="n_w_185" type="car" route="n_w" depart="370" departLane="random" departSpeed="10" />
    <vehicle id="s_w_186" type="car" route="s_w" depart="372" departLane="random" departSpeed="10" />
    <vehicle id="w_e_187" type="car" route="w_e" depart="374" departLane="random" departSpeed="10" />
    <vehicle id="s_e_188" type="car" route="s_e" depart="376" departLane="random" departSpeed="10" />
    <vehicle id="n_s_189" type="car" route="n_s" depart="378" departLane="random" departSpeed="10" />
    <vehicle id="e_n_190" type="car" route="e_n" depart="380" departLane="random" departSpeed="10" />
    <vehicle id="n_e_191" type="car" route="n_e" depart="382" departLane="random" departSpeed="10" />
    <vehicle id="n_s_192" type="car" route="n_s" depart="384" departLane="random" departSpeed="10" />
    <vehicle id="w_n_193" type="car" route="w_n" depart="386" departLane="random" departSpeed="10" />
    <vehicle id="s_n_194" type="car" route="s_n" depart="388" departLane="random" departSpeed="10" />
    <vehicle id="s_n_195" type="car" route="s_n" depart="390" departLane="random" departSpeed="10" />
    <vehicle id="s_n_196" type="car" route="s_n" depart="392" departLane="random" departSpeed="10" />
    <vehicle id="e_s_197" type="car" route="e_s" depart="394" departLane="random" departSpeed="10" />
    <vehicle id="w_s_198" type="car" route="w_s" depart="396" departLane="random" departSpeed="10" />
    <vehicle id="n_e_199" type="car" route="n_e" depart="398" departLane="random" departSpeed="10" />
    <vehicle id="w_e_200" type="car" route="w_e" depart="400" departLane="random" departSpeed="10" />
    <vehicle id="n_e_201" type="car" route="n_e" depart="402" departLane="random" departSpeed="10" />
    <vehicle id="s_n_202" type="car" route="s_n" depart="404" departLane="random" departSpeed="10" />
    <vehicle id="n_s_203" type="car" route="n_s" depart="406" departLane="random" departSpeed="10" />
    <vehicle id="e_w_204" type="car" route="e_w" depart="408" departLane="random" departSpeed="10" />
    <vehicle id="e_s_205" type="car" route="e_s" depart="410" departLane="random" departSpeed="10" />
    <vehicle id="w_n_206" type="car" route="w_n" depart="412" departLane="random" departSpeed="10" />
    <vehicle id="w_e_207" type="car" route="w_e" depart="414" departLane="random" departSpeed="10" />
    <vehicle id="w_n_208" type="car" route="w_n" depart="416" departLane="random" departSpeed="10" />
    <vehicle id="w_e_209" type="car" route="w_e" depart="418" departLane="random" departSpeed="10" />
    <vehicle id="w_n_210" type="car" route="w_n" depart="420" departLane="random" departSpeed="10" />
    <vehicle id="w_s_211" type="car" route="w_s" depart="422" departLane="random" departSpeed="10" />
    <vehicle id="s_w_212" type="car" route="s_w" depart="424" departLane="random" departSpeed="10" />
    <vehicle id="n_s_213" type="car" route="n_s" depart="426" departLane="random" departSpeed="10" />
    <vehicle id="e_s_214" type="car" route="e_s" depart="428" departLane="random" departSpeed="10" />
    <vehicle id="n_e_215" type="car" route="n_e" depart="430" departLane="random" departSpeed="10" />
    <vehicle id="n_w_216" type="car" route="n_w" depart="432" departLane="random" departSpeed="10" />
    <vehicle id="e_w_217" type="car" route="e_w" depart="434" departLane="random" departSpeed="10" />
    <vehicle id="s_w_218" type="car" route="s_w" depart="436" departLane="random" departSpeed="10" />
    <vehicle id="s_w_219" type="car" route="s_w" depart="438" departLane="random" departSpeed="10" />
    <vehicle id="n_s_220" type="car" route="n_s" depart="440" departLane="random" departSpeed="10" />
    <vehicle id="w_s_221" type="car" route="w_s" depart="442" departLane="random" departSpeed="10" />
    <vehicle id="n_w_222" type="car" route="n_w" depart="444" departLane="random" departSpeed="10" />
    <vehicle id="e_n_223" type="car" route="e_n" depart="446" departLane="random" departSpeed="10" />
    <vehicle id="s_n_224" type="car" route="s_n" depart="448" departLane="random" departSpeed="10" />
    <vehicle id="s_w_225" type="car" route="s_w" depart="450" departLane="random" departSpeed="10" />
    <vehicle id="w_s_226" type="car" route="w_s" depart="452" departLane="random" departSpeed="10" />
    <vehicle id="e_s_227" type="car" route="e_s" depart="454" departLane="random" departSpeed="10" />
    <vehicle id="w_s_228" type="car" route="w_s" depart="456" departLane="random" departSpeed="10" />
    <vehicle id="w_e_229" type="car" route="w_e" depart="458" departLane="random" departSpeed="10" />
    <vehicle id="n_e_230" type="car" route="n_e" depart="460" departLane="random" departSpeed="10" />
    <vehicle id="w_e_231" type="car" route="w_e" depart="462" departLane="random" departSpeed="10" />
    <vehicle id="s_e_232" type="car" route="s_e" depart="464" departLane="random" departSpeed="10" />
    <vehicle id="w_e_233" type="car" route="w_e" depart="466" departLane="random" departSpeed="10" />
    <vehicle id="e_w_234" type="car" route="e_w" depart="468" departLane="random" departSpeed="10" />
    <vehicle id="w_e_235" type="car" route="w_e" depart="470" departLane="random" departSpeed="10" />
    <vehicle id="w_e_236" type="car" route="w_e" depart="472" departLane="random" departSpeed="10" />
    <vehicle id="w_e_237" type="car" route="w_e" depart="474" departLane="random" departSpeed="10" />
    <vehicle id="w_n_238" type="car" route="w_n" depart="476" departLane="random" departSpeed="10" />
    <vehicle id="e_s_239" type="car" route="e_s" depart="478" departLane="random" departSpeed="10" />
    <vehicle id="s_n_240" type="car" route="s_n" depart="480" departLane="random" departSpeed="10" />
    <vehicle id="w_n_241" type="car" route="w_n" depart="482" departLane="random" departSpeed="10" />
    <vehicle id="s_w_242" type="car" route="s_w" depart="484" departLane="random" departSpeed="10" />
    <vehicle id="n_s_243" type="car" route="n_s" depart="486" departLane="random" departSpeed="10" />
    <vehicle id="e_s_244" type="car" route="e_s" depart="488" departLane="random" departSpeed="10" />
    <vehicle id="s_n_245" type="car" route="s_n" depart="490" departLane="random" departSpeed="10" />
    <vehicle id="n_w_246" type="car" route="n_w" depart="492" departLane="random" departSpeed="10" />
    <vehicle id="s_e_247" type="car" route="s_e" depart="494" departLane="random" departSpeed="10" />
    <vehicle id="w_n_248" type="car" route="w_n" depart="496" departLane="random" departSpeed="10" />
    <vehicle id="e_w_249" type="car" route="e_w" depart="498" departLane="random" departSpeed="10" />
    <vehicle id="s_n_250" type="car" route="s_n" depart="501" departLane="random" departSpeed="10" />
    <vehicle id="e_w_251" type="car" route="e_w" depart="503" departLane="random" departSpeed="10" />
    <vehicle id="w_s_252" type="car" route="w_s" depart="505" departLane="random" departSpeed="10" />
    <vehicle id="s_e_253" type="car" route="s_e" depart="507" departLane="random" departSpeed="10" />
    <vehicle id="s_w_254" type="car" route="s_w" depart="509" departLane="random" departSpeed="10" />
    <vehicle id="n_w_255" type="car" route="n_w" depart="511" departLane="random" departSpeed="10" />
    <vehicle id="n_w_256" type="car" route="n_w" depart="513" departLane="random" departSpeed="10" />
    <vehicle id="w_s_257" type="car" route="w_s" depart="515" departLane="random" departSpeed="10" />
    <vehicle id="s_n_258" type="car" route="s_n" depart="517" departLane="random" departSpeed="10" />
    <vehicle id="n_w_259" type="car" route="n_w" depart="519" departLane="random" departSpeed="10" />
    <vehicle id="s_n_260" type="car" route="s_n" depart="521" departLane="random" departSpeed="10" />
    <vehicle id="w_s_261" type="car" route="w_s" depart="523" departLane="random" departSpeed="10" />
    <vehicle id="n_e_262" type="car" route="n_e" depart="525" departLane="random" departSpeed="10" />
    <vehicle id="w_s_263" type="car" route="w_s" depart="527" departLane="random" departSpeed="10" />
    <vehicle id="s_e_264" type="car" route="s_e" depart="529" departLane="random" departSpeed="10" />
    <vehicle id="s_w_265" type="car" route="s_w" depart="531" departLane="random" departSpeed="10" />
    <vehicle id="w_e_266" type="car" route="w_e" depart="533" departLane="random" departSpeed="10" />
    <vehicle id="w_s_267" type="car" route="w_s" depart="535" departLane="random" departSpeed="10" />
    <vehicle id="w_s_268" type="car" route="w_s" depart="537" departLane="random" departSpeed="10" />
    <vehicle id="w_s_269" type="car" route="w_s" depart="539" departLane="random" departSpeed="10" />
    <vehicle id="w_e_270" type="car" route="w_e" depart="541" departLane="random" departSpeed="10" />
    <vehicle id="s_n_271" type="car" route="s_n" depart="543" departLane="random" departSpeed="10" />
    <vehicle id="w_n_272" type="car" route="w_n" depart="545" departLane="random" departSpeed="10" />
    <vehicle id="w_n_273" type="car" route="w_n" depart="547" departLane="random" departSpeed="10" />
    <vehicle id="e_w_274" type="car" route="e_w" depart="549" departLane="random" departSpeed="10" />
    <vehicle id="n_e_275" type="car" route="n_e" depart="551" departLane="random" departSpeed="10" />
    <vehicle id="s_w_276" type="car" route="s_w" depart="553" departLane="random" departSpeed="10" />
    <vehicle id="s_n_277" type="car" route="s_n" depart="555" departLane="random" departSpeed="10" />
    <vehicle id="w_n_278" type="car" route="w_n" depart="557" departLane="random" departSpeed="10" />
    <vehicle id="s_n_279" type="car" route="s_n" depart="559" departLane="random" departSpeed="10" />
    <vehicle id="e_w_280" type="car" route="e_w" depart="561" departLane="random" departSpeed="10" />
    <vehicle id="w_n_281" type="car" route="w_n" depart="563" departLane="random" departSpeed="10" />
    <vehicle id="e_w_282" type="car" route="e_w" depart="565" departLane="random" departSpeed="10" />
    <vehicle id="s_w_283" type="car" route="s_w" depart="567" departLane="random" departSpeed="10" />
    <vehicle id="e_n_284" type="car" route="e_n" depart="569" departLane="random" departSpeed="10" />
    <vehicle id="n_w_285" type="car" route="n_w" depart="571" departLane="random" departSpeed="10" />
    <vehicle id="e_n_286" type="car" route="e_n" depart="573" departLane="random" departSpeed="10" />
    <vehicle id="e_w_287" type="car" route="e_w" depart="575" departLane="random" departSpeed="10" />