 <routes>
            <vType id="car" accel="0.8" decel="4.5" sigma="0.5" length="5" minGap="2.5" maxSpeed="20.0" />
            <route id="n_w" edges="nptocp cptowp"/>
            <route id="n_s" edges="nptocp cptosp"/>
            <route id="n_e" edges="nptocp cptoep"/>
            <route id="e_n" edges="eptocp cptonp"/>
            <route id="e_w" edges="eptocp cptowp"/>
            <route id="e_s" edges="eptocp cptosp"/>
            <route id="s_e" edges="sptocp cptoep"/>
            <route id="s_n" edges="sptocp cptonp"/>
            <route id="s_w" edges="sptocp cptowp"/>
            <route id="w_s" edges="wptocp cptosp"/>
            <route id="w_e" edges="wptocp cptoep"/>
            <route id="w_n" edges="wptocp cptonp"/>
    <vehicle id="e_w_0" type="car" route="e_w" depart="0" departLane="random" departSpeed="10" />
    <vehicle id="s_n_1" type="car" route="s_n" depart="1" departLane="random" departSpeed="10" />
    <vehicle id="n_s_2" type="car" route="n_s" depart="2" departLane="random" departSpeed="10" />
    <vehicle id="s_n_3" type="car" route="s_n" depart="3" departLane="random" departSpeed="10" />
    <vehicle id="w_e_4" type="car" route="w_e" depart="5" departLane="random" departSpeed="10" />
    <vehicle id="n_s_5" type="car" route="n_s" depart="6" departLane="random" departSpeed="10" />
    <vehicle id="s_n_6" type="car" route="s_n" depart="7" departLane="random" departSpeed="10" />
    <vehicle id="w_e_7" type="car" route="w_e" depart="8" departLane="random" departSpeed="10" />
    <vehicle id="s_n_8" type="car" route="s_n" depart="10" departLane="random" departSpeed="10" />
    <vehicle id="e_w_9" type="car" route="e_w" depart="11" departLane="random" departSpeed="10" />
    <vehicle id="w_e_10" type="car" route="w_e" depart="12" departLane="random" departSpeed="10" />
    <vehicle id="e_s_11" type="car" route="e_s" depart="13" departLane="random" departSpeed="10" />
    <vehicle id="e_n_12" type="car" route="e_n" depart="15" departLane="random" departSpeed="10" />
    <vehicle id="e_n_13" type="car" route="e_n" depart="16" departLane="random" departSpeed="10" />
    <vehicle id="w_s_14" type="car" route="w_s" depart="17" departLane="random" departSpeed="10" />
    <vehicle id="n_w_15" type="car" route="n_w" depart="18" departLane="random" departSpeed="10" />
    <vehicle id="s_n_16" type="car" route="s_n" depart="20" departLane="random" departSpeed="10" />
    <vehicle id="w_e_17" type="car" route="w_e" depart="21" departLane="random" departSpeed="10" />
    <vehicle id="n_s_18" type="car" route="n_s" depart="22" departLane="random" departSpeed="10" />
    <vehicle id="e_w_19" type="car" route="e_w" depart="23" departLane="random" departSpeed="10" />
    <vehicle id="n_w_20" type="car" route="n_w" depart="25" departLane="random" departSpeed="10" />
    <vehicle id="s_e_21" type="car" route="s_e" depart="26" departLane="random" departSpeed="10" />
    <vehicle id="n_s_22" type="car" route="n_s" depart="27" departLane="random" departSpeed="10" />
    <vehicle id="s_n_23" type="car" route="s_n" depart="28" departLane="random" departSpeed="10" />
    <vehicle id="s_e_24" type="car" route="s_e" depart="30" departLane="random" departSpeed="10" />
    <vehicle id="n_e_25" type="car" route="n_e" depart="31" departLane="random" departSpeed="10" />
    <vehicle id="s_n_26" type="car" route="s_n" depart="32" departLane="random" departSpeed="10" />
    <vehicle id="w_e_27" type="car" route="w_e" depart="33" departLane="random" departSpeed="10" />
    <vehicle id="n_e_28" type="car" route="n_e" depart="35" departLane="random" departSpeed="10" />
    <vehicle id="e_w_29" type="car" route="e_w" depart="36" departLane="random" departSpeed="10" />
    <vehicle id="w_s_30" type="car" route="w_s" depart="37" departLane="random" departSpeed="10" />
    <vehicle id="w_e_31" type="car" route="w_e" depart="38" departLane="random" departSpeed="10" />
    <vehicle id="n_w_32" type="car" route="n_w" depart="40" departLane="random" departSpeed="10" />
    <vehicle id="w_s_33" type="car" route="w_s" depart="41" departLane="random" departSpeed="10" />
    <vehicle id="n_w_34" type="car" route="n_w" depart="42" departLane="random" departSpeed="10" />
    <vehicle id="e_s_35" type="car" route="e_s" depart="43" departLane="random" departSpeed="10" />
    <vehicle id="n_s_36" type="car" route="n_s" depart="45" departLane="random" departSpeed="10" />
    <vehicle id="w_e_37" type="car" route="w_e" depart="46" departLane="random" departSpeed="10" />
    <vehicle id="e_s_38" type="car" route="e_s" depart="47" departLane="random" departSpeed="10" />
    <vehicle id="w_s_39" type="car" route="w_s" depart="48" departLane="random" departSpeed="10" />
    <vehicle id="w_e_40" type="car" route="w_e" depart="50" departLane="random" departSpeed="10" />
    <vehicle id="e_w_41" type="car" route="e_w" depart="51" departLane="random" departSpeed="10" />
    <vehicle id="s_n_42" type="car" route="s_n" depart="52" departLane="random" departSpeed="10" />
    <vehicle id="s_e_43" type="car" route="s_e" depart="53" departLane="random" departSpeed="10" />
    <vehicle id="e_w_44" type="car" route="e_w" depart="55" departLane="random" departSpeed="10" />
    <vehicle id="s_e_45" type="car" route="s_e" depart="56" departLane="random" departSpeed="10" />
    <vehicle id="s_w_46" type="car" route="s_w" depart="57" departLane="random" departSpeed="10" />
    <vehicle id="n_w_47" type="car" route="n_w" depart="58" departLane="random" departSpeed="10" />
    <vehicle id="s_n_48" type="car" route="s_n" depart="60" departLane="random" departSpeed="10" />
    <vehicle id="w_e_49" type="car" route="w_e" depart="61" departLane="random" departSpeed="10" />
    <vehicle id="n_e_50" type="car" route="n_e" depart="62" departLane="random" departSpeed="10" />
    <vehicle id="n_e_51" type="car" route="n_e" depart="63" departLane="random" departSpeed="10" />
    <vehicle id="e_n_52" type="car" route="e_n" depart="65" departLane="random" departSpeed="10" />
    <vehicle id="w_e_53" type="car" route="w_e" depart="66" departLane="random" departSpeed="10" />
    <vehicle id="n_w_54" type="car" route="n_w" depart="67" departLane="random" departSpeed="10" />
    <vehicle id="w_n_55" type="car" route="w_n" depart="68" departLane="random" departSpeed="10" />
    <vehicle id="e_w_56" type="car" route="e_w" depart="70" departLane="random" departSpeed="10" />
    <vehicle id="n_e_57" type="car" route="n_e" depart="71" departLane="random" departSpeed="10" />
    <vehicle id="n_w_58" type="car" route="n_w" depart="72" departLane="random" departSpeed="10" />
    <vehicle id="s_w_59" type="car" route="s_w" depart="73" departLane="random" departSpeed="10" />
    <vehicle id="n_w_60" type="car" route="n_w" depart="75" departLane="random" departSpeed="10" />
    <vehicle id="n_s_61" type="car" route="n_s" depart="76" departLane="random" departSpeed="10" />
    <vehicle id="s_e_62" type="car" route="s_e" depart="77" departLane="random" departSpeed="10" />
    <vehicle id="s_n_63" type="car" route="s_n" depart="78" departLane="random" departSpeed="10" />
    <vehicle id="n_e_64" type="car" route="n_e" depart="80" departLane="random" departSpeed="10" />
    <vehicle id="s_e_65" type="car" route="s_e" depart="81" departLane="random" departSpeed="10" />
    <vehicle id="e_w_66" type="car" route="e_w" depart="82" departLane="random" departSpeed="10" />
    <vehicle id="s_n_67" type="car" route="s_n" depart="83" departLane="random" departSpeed="10" />
    <vehicle id="n_e_68" type="car" route="n_e" depart="85" departLane="random" departSpeed="10" />
    <vehicle id="n_s_69" type="car" route="n_s" depart="86" departLane="random" departSpeed="10" />
    <vehicle id="s_n_70" type="car" route="s_n" depart="87" departLane="random" departSpeed="10" />
    <vehicle id="s_e_71" type="car" route="s_e" depart="88" departLane="random" departSpeed="10" />
    <vehicle id="e_s_72" type="car" route="e_s" depart="90" departLane="random" departSpeed="10" />
    <vehicle id="w_e_73" type="car" route="w_e" depart="91" departLane="random" departSpeed="10" />
    <vehicle id="e_w_74" type="car" route="e_w" depart="92" departLane="random" departSpeed="10" />
    <vehicle id="e_n_75" type="car" route="e_n" depart="93" departLane="random" departSpeed="10" />
    <vehicle id="e_w_76" type="car" route="e_w" depart="95" departLane="random" departSpeed="10" />
    <vehicle id="w_s_77" type="car" route="w_s" depart="96" departLane="random" departSpeed="10" />
    <vehicle id="e_s_78" type="car" route="e_s" depart="97" departLane="random" departSpeed="10" />
    <vehicle id="s_n_79" type="car" route="s_n" depart="98" departLane="random" departSpeed="10" />
    <vehicle id="w_e_80" type="car" route="w_e" depart="100" departLane="random" departSpeed="10" />
    <vehicle id="n_w_81" type="car" route="n_w" depart="101" departLane="random" departSpeed="10" />
    <vehicle id="w_n_82" type="car" route="w_n" depart="102" departLane="random" departSpeed="10" />
    <vehicle id="w_n_83" type="car" route="w_n" depart="104" departLane="random" departSpeed="10" />
    <vehicle id="s_e_84" type="car" route="s_e" depart="105" departLane="random" departSpeed="10" />
    <vehicle id="n_w_85" type="car" route="n_w" depart="106" departLane="random" departSpeed="10" />
    <vehicle id="n_w_86" type="car" route="n_w" depart="107" departLane="random" departSpeed="10" />
    <vehicle id="e_n_87" type="car" route="e_n" depart="109" departLane="random" departSpeed="10" />
    <vehicle id="n_s_88" type="car" route="n_s" depart="110" departLane="random" departSpeed="10" />
    <vehicle id="e_n_89" type="car" route="e_n" depart="111" departLane="random" departSpeed="10" />
    <vehicle id="s_e_90" type="car" route="s_e" depart="112" departLane="random" departSpeed="10" />
    <vehicle id="s_n_91" type="car" route="s_n" depart="114" departLane="random" departSpeed="10" />
    <vehicle id="e_s_92" type="car" route="e_s" depart="115" departLane="random" departSpeed="10" />
    <vehicle id="w_s_93" type="car" route="w_s" depart="116" departLane="random" departSpeed="10" />
    <vehicle id="s_e_94" type="car" route="s_e" depart="117" departLane="random" departSpeed="10" />
    <vehicle id="e_n_95" type="car" route="e_n" depart="119" departLane="random" departSpeed="10" />
    <vehicle id="s_e_96" type="car" route="s_e" depart="120" departLane="random" departSpeed="10" />
    <vehicle id="s_e_97" type="car" route="s_e" depart="121" departLane="random" departSpeed="10" />
    <vehicle id="n_s_98" type="car" route="n_s" depart="122" departLane="random" departSpeed="10" />
    <vehicle id="w_s_99" type="car" route="w_s" depart="124" departLane="random" departSpeed="10" />
    <vehicle id="s_e_100" type="car" route="s_e" depart="125" departLane="random" departSpeed="10" />
    <vehicle id="w_n_101" type="car" route="w_n" depart="126" departLane="random" departSpeed="10" />
    <vehicle id="s_e_102" type="car" route="s_e" depart="127" departLane="random" departSpeed="10" />
    <vehicle id="w_e_103" type="car" route="w_e" depart="129" departLane="random" departSpeed="10" />
    <vehicle id="e_w_104" type="car" route="e_w" depart="130" departLane="random" departSpeed="10" />
    <vehicle id="w_n_105" type="car" route="w_n" depart="131" departLane="random" departSpeed="10" />
    <vehicle id="n_w_106" type="car" route="n_w" depart="132" departLane="random" departSpeed="10" />
    <vehicle id="e_w_107" type="car" route="e_w" depart="134" departLane="random" departSpeed="10" />
    <vehicle id="w_n_108" type="car" route="w_n" depart="135" departLane="random" departSpeed="10" />
    <vehicle id="w_e_109" type="car" route="w_e" depart="136" departLane="random" departSpeed="10" />
    <vehicle id="w_s_110" type="car" route="w_s" depart="137" departLane="random" departSpeed="10" />
    <vehicle id="n_e_111" type="car" route="n_e" depart="139" departLane="random" departSpeed="10" />
    <vehicle id="e_w_112" type="car" route="e_w" depart="140" departLane="random" departSpeed="10" />
    <vehicle id="e_n_113" type="car" route="e_n" depart="141" departLane="random" departSpeed="10" />
    <vehicle id="n_w_114" type="car" route="n_w" depart="142" departLane="random" departSpeed="10" />
    <vehicle id="e_w_115" type="car" route="e_w" depart="144" departLane="random" departSpeed="10" />
    <vehicle id="n_s_116" type="car" route="n_s" depart="145" departLane="random" departSpeed="10" />
    <vehicle id="s_w_117" type="car" route="s_w" depart="146" departLane="random" departSpeed="10" />
    <vehicle id="w_e_118" type="car" route="w_e" depart="147" departLane="random" departSpeed="10" />
    <vehicle id="e_n_119" type="car" route="e_n" depart="149" departLane="random" departSpeed="10" />
    <vehicle id="n_s_120" type="car" route="n_s" depart="150" departLane="random" departSpeed="10" />
    <vehicle id="n_s_121" type="car" route="n_s" depart="151" departLane="random" departSpeed="10" />
    <vehicle id="e_n_122" type="car" route="e_n" depart="152" departLane="random" departSpeed="10" />
    <vehicle id="w_e_123" type="car" route="w_e" depart="154" departLane="random" departSpeed="10" />
    <vehicle id="w_s_124" type="car" route="w_s" depart="155" departLane="random" departSpeed="10" />
    <vehicle id="s_e_125" type="car" route="s_e" depart="156" departLane="random" departSpeed="10" />
    <vehicle id="s_e_126" type="car" route="s_e" depart="157" departLane="random" departSpeed="10" />
    <vehicle id="n_e_127" type="car" route="n_e" depart="159" departLane="random" departSpeed="10" />
    <vehicle id="n_e_128" type="car" route="n_e" depart="160" departLane="random" departSpeed="10" />
    <vehicle id="s_n_129" type="car" route="s_n" depart="161" departLane="random" departSpeed="10" />
    <vehicle id="s_e_130" type="car" route="s_e" depart="162" departLane="random" departSpeed="10" />
    <vehicle id="s_n_131" type="car" route="s_n" depart="164" departLane="random" departSpeed="10" />
    <vehicle id="w_s_132" type="car" route="w_s" depart="165" departLane="random" departSpeed="10" />
    <vehicle id="e_n_133" type="car" route="e_n" depart="166" departLane="random" departSpeed="10" />
    <vehicle id="n_e_134" type="car" route="n_e" depart="167" departLane="random" departSpeed="10" />
    <vehicle id="s_e_135" type="car" route="s_e" depart="169" departLane="random" departSpeed="10" />
    <vehicle id="s_n_136" type="car" route="s_n" depart="170" departLane="random" departSpeed="10" />
    <vehicle id="w_e_137" type="car" route="w_e" depart="171" departLane="random" departSpeed="10" />
    <vehicle id="n_e_138" type="car" route="n_e" depart="172" departLane="random" departSpeed="10" />
    <vehicle id="w_e_139" type="car" route="w_e" depart="174" departLane="random" departSpeed="10" />
    <vehicle id="e_w_140" type="car" route="e_w" depart="175" departLane="random" departSpeed="10" />
    <vehicle id="n_s_141" type="car" route="n_s" depart="176" departLane="random" departSpeed="10" />
    <vehicle id="s_n_142" type="car" route="s_n" depart="177" departLane="random" departSpeed="10" />
    <vehicle id="s_e_143" type="car" route="s_e" depart="179" departLane="random" departSpeed="10" />
    <vehicle id="s_n_144" type="car" route="s_n" depart="180" departLane="random" departSpeed="10" />
    <vehicle id="n_e_145" type="car" route="n_e" depart="181" departLane="random" departSpeed="10" />
    <vehicle id="w_e_146" type="car" route="w_e" depart="182" departLane="random" departSpeed="10" />
    <vehicle id="n_w_147" type="car" route="n_w" depart="184" departLane="random" departSpeed="10" />
    <vehicle id="n_w_148" type="car" route="n_w" depart="185" departLane="random" departSpeed="10" />
    <vehicle id="e_n_149" type="car" route="e_n" depart="186" departLane="random" departSpeed="10" />
    <vehicle id="e_w_150" type="car" route="e_w" depart="187" departLane="random" departSpeed="10" />
    <vehicle id="w_s_151" type="car" route="w_s" depart="189" departLane="random" departSpeed="10" />
    <vehicle id="w_s_152" type="car" route="w_s" depart="190" departLane="random" departSpeed="10" />
    <vehicle id="s_e_153" type="car" route="s_e" depart="191" departLane="random" departSpeed="10" />
    <vehicle id="w_n_154" type="car" route="w_n" depart="192" departLane="random" departSpeed="10" />
    <vehicle id="s_e_155" type="car" route="s_e" depart="194" departLane="random" departSpeed="10" />
    <vehicle id="n_w_156" type="car" route="n_w" depart="195" departLane="random" departSpeed="10" />
    <vehicle id="w_e_157" type="car" route="w_e" depart="196" departLane="random" departSpeed="10" />
    <vehicle id="e_w_158" type="car" route="e_w" depart="197" departLane="random" departSpeed="10" />
    <vehicle id="s_n_159" type="car" route="s_n" depart="199" departLane="random" departSpeed="10" />
    <vehicle id="n_w_160" type="car" route="n_w" depart="200" departLane="random" departSpeed="10" />
    <vehicle id="w_n_161" type="car" route="w_n" depart="201" departLane="random" departSpeed="10" />
    <vehicle id="s_w_162" type="car" route="s_w" depart="203" departLane="random" departSpeed="10" />
    <vehicle id="w_n_163" type="car" route="w_n" depart="204" departLane="random" departSpeed="10" />
    <vehicle id="n_s_164" type="car" route="n_s" depart="205" departLane="random" departSpeed="10" />
    <vehicle id="e_w_165" type="car" route="e_w" depart="206" departLane="random" departSpeed="10" />
    <vehicle id="w_e_166" type="car" route="w_e" depart="208" departLane="random" departSpeed="10" />
    <vehicle id="n_s_167" type="car" route="n_s" depart="209" departLane="random" departSpeed="10" />
    <vehicle id="n_w_168" type="car" route="n_w" depart="210" departLane="random" departSpeed="10" />
    <vehicle id="n_e_169" type="car" route="n_e" depart="211" departLane="random" departSpeed="10" />
    <vehicle id="e_n_170" type="car" route="e_n" depart="213" departLane="random" departSpeed="10" />
    <vehicle id="n_s_171" type="car" route="n_s" depart="214" departLane="random" departSpeed="10" />
    <vehicle id="e_s_172" type="car" route="e_s" depart="215" departLane="random" departSpeed="10" />
    <vehicle id="n_e_173" type="car" route="n_e" depart="216" departLane="random" departSpeed="10" />
    <vehicle id="w_s_174" type="car" route="w_s" depart="218" departLane="random" departSpeed="10" />
    <vehicle id="s_e_175" type="car" route="s_e" depart="219" departLane="random" departSpeed="10" />
    <vehicle id="e_w_176" type="car" route="e_w" depart="220" departLane="random" departSpeed="10" />
    <vehicle id="e_s_177" type="car" route="e_s" depart="221" departLane="random" departSpeed="10" />
    <vehicle id="e_w_178" type="car" route="e_w" depart="223" departLane="random" departSpeed="10" />
    <vehicle id="e_n_179" type="car" route="e_n" depart="224" departLane="random" departSpeed="10" />
    <vehicle id="n_s_180" type="car" route="n_s" depart="225" departLane="random" departSpeed="10" />
    <vehicle id="n_s_181" type="car" route="n_s" depart="226" departLane="random" departSpeed="10" />
    <vehicle id="s_n_182" type="car" route="s_n" depart="228" departLane="random" departSpeed="10" />
    <vehicle id="w_e_183" type="car" route="w_e" depart="229" departLane="random" departSpeed="10" />
    <vehicle id="s_e_184" type="car" route="s_e" depart="230" departLane="random" departSpeed="10" />
    <vehicle id="n_s_185" type="car" route="n_s" depart="231" departLane="random" departSpeed="10" />
    <vehicle id="e_n_186" type="car" route="e_n" depart="233" departLane="random" departSpeed="10" />
    <vehicle id="n_w_187" type="car" route="n_w" depart="234" departLane="random" departSpeed="10" />
    <vehicle id="e_n_188" type="car" route="e_n" depart="235" departLane="random" departSpeed="10" />
    <vehicle id="s_w_189" type="car" route="s_w" depart="236" departLane="random" departSpeed="10" />
    <vehicle id="e_w_190" type="car" route="e_w" depart="238" departLane="random" departSpeed="10" />
    <vehicle id="w_s_191" type="car" route="w_s" depart="239" departLane="random" departSpeed="10" />
    <vehicle id="w_s_192" type="car" route="w_s" depart="240" departLane="random" departSpeed="10" />
    <vehicle id="w_e_193" type="car" route="w_e" depart="241" departLane="random" departSpeed="10" />
    <vehicle id="s_e_194" type="car" route="s_e" depart="243" departLane="random" departSpeed="10" />
    <vehicle id="w_e_195" type="car" route="w_e" depart="244" departLane="random" departSpeed="10" />
    <vehicle id="w_n_196" type="car" route="w_n" depart="245" departLane="random" departSpeed="10" />
    <vehicle id="e_n_197" type="car" route="e_n" depart="246" departLane="random" departSpeed="10" />
    <vehicle id="e_w_198" type="car" route="e_w" depart="248" departLane="random" departSpeed="10" />
    <vehicle id="s_e_199" type="car" route="s_e" depart="249" departLane="random" departSpeed="10" />
    <vehicle id="e_w_200" type="car" route="e_w" depart="250" departLane="random" departSpeed="10" />
    <vehicle id="e_n_201" type="car" route="e_n" depart="251" departLane="random" departSpeed="10" />
    <vehicle id="e_w_202" type="car" route="e_w" depart="253" departLane="random" departSpeed="10" />
    <vehicle id="e_n_203" type="car" route="e_n" depart="254" departLane="random" departSpeed="10" />
    <vehicle id="e_w_204" type="car" route="e_w" depart="255" departLane="random" departSpeed="10" />
    <vehicle id="e_w_205" type="car" route="e_w" depart="256" departLane="random" departSpeed="10" />
    <vehicle id="n_e_206" type="car" route="n_e" depart="258" departLane="random" departSpeed="10" />
    <vehicle id="w_s_207" type="car" route="w_s" depart="259" departLane="random" departSpeed="10" />
    <vehicle id="e_n_208" type="car" route="e_n" depart="260" departLane="random" departSpeed="10" />
    <vehicle id="e_n_209" type="car" route="e_n" depart="261" departLane="random" departSpeed="10" />
    <vehicle id="w_s_210" type="car" route="w_s" depart="263" departLane="random" departSpeed="10" />
    <vehicle id="w_n_211" type="car" route="w_n" depart="264" departLane="random" departSpeed="10" />
    <vehicle id="w_n_212" type="car" route="w_n" depart="265" departLane="random" departSpeed="10" />
    <vehicle id="n_e_213" type="car" route="n_e" depart="266" departLane="random" departSpeed="10" />
    <vehicle id="n_w_214" type="car" route="n_w" depart="268" departLane="random" departSpeed="10" />
    <vehicle id="n_s_215" type="car" route="n_s" depart="269" departLane="random" departSpeed="10" />
    <vehicle id="e_s_216" type="car" route="e_s" depart="270" departLane="random" departSpeed="10" />
    <vehicle id="s_e_217" type="car" route="s_e" depart="271" departLane="random" departSpeed="10" />
    <vehicle id="s_w_218" type="car" route="s_w" depart="273" departLane="random" departSpeed="10" />
    <vehicle id="e_s_219" type="car" route="e_s" depart="274" departLane="random" departSpeed="10" />
    <vehicle id="n_w_220" type="car" route="n_w" depart="275" departLane="random" departSpeed="10" />
    <vehicle id="e_w_221" type="car" route="e_w" depart="276" departLane="random" departSpeed="10" />
    <vehicle id="w_s_222" type="car" route="w_s" depart="278" departLane="random" departSpeed="10" />
    <vehicle id="s_e_223" type="car" route="s_e" depart="279" departLane="random" departSpeed="10" />
    <vehicle id="e_n_224" type="car" route="e_n" depart="280" departLane="random" departSpeed="10" />
    <vehicle id="w_e_225" type="car" route="w_e" depart="281" departLane="random" departSpeed="10" />
    <vehicle id="w_s_226" type="car" route="w_s" depart="283" departLane="random" departSpeed="10" />
    <vehicle id="s_n_227" type="car" route="s_n" depart="284" departLane="random" departSpeed="10" />
    <vehicle id="s_e_228" type="car" route="s_e" depart="285" departLane="random" departSpeed="10" />
    <vehicle id="s_w_229" type="car" route="s_w" depart="286" departLane="random" departSpeed="10" />
    <vehicle id="e_n_230" type="car" route="e_n" depart="288" departLane="random" departSpeed="10" />
    <vehicle id="s_e_231" type="car" route="s_e" depart="289" departLane="random" departSpeed="10" />
    <vehicle id="n_s_232" type="car" route="n_s" depart="290" departLane="random" departSpeed="10" />
    <vehicle id="n_s_233" type="car" route="n_s" depart="291" departLane="random" departSpeed="10" />
    <vehicle id="n_w_234" type="car" route="n_w" depart="293" departLane="random" departSpeed="10" />
    <vehicle id="e_w_235" type="car" route="e_w" depart="294" departLane="random" departSpeed="10" />
    <vehicle id="s_n_236" type="car" route="s_n" depart="295" departLane="random" departSpeed="10" />
    <vehicle id="s_e_237" type="car" route="s_e" depart="296" departLane="random" departSpeed="10" />
    <vehicle id="e_n_238" type="car" route="e_n" depart="298" departLane="random" departSpeed="10" />
    <vehicle id="s_n_239" type="car" route="s_n" depart="299" departLane="random" departSpeed="10" />
    <vehicle id="n_w_240" type="car" route="n_w" depart="300" departLane="random" departSpeed="10" />
    <vehicle id="s_n_241" type="car" route="s_n" depart="302" departLane="random" departSpeed="10" />
    <vehicle id="n_w_242" type="car" route="n_w" depart="303" departLane="random" departSpeed="10" />
    <vehicle id="e_n_243" type="car" route="e_n" depart="304" departLane="random" departSpeed="10" />
    <vehicle id="n_s_244" type="car" route="n_s" depart="305" departLane="random" departSpeed="10" />
    <vehicle id="n_w_245" type="car" route="n_w" depart="307" departLane="random" departSpeed="10" />
    <vehicle id="e_s_246" type="car" route="e_s" depart="308" departLane="random" departSpeed="10" />
    <vehicle id="n_w_247" type="car" route="n_w" depart="309" departLane="random" departSpeed="10" />
    <vehicle id="e_n_248" type="car" route="e_n" depart="310" departLane="random" departSpeed="10" />
    <vehicle id="s_n_249" type="car" route="s_n" depart="312" departLane="random" departSpeed="10" />
    <vehicle id="n_s_250" type="car" route="n_s" depart="313" departLane="random" departSpeed="10" />
    <vehicle id="n_s_251" type="car" route="n_s" depart="314" departLane="random" departSpeed="10" />
    <vehicle id="n_w_252" type="car" route="n_w" depart="315" departLane="random" departSpeed="10" />
    <vehicle id="w_s_253" type="car" route="w_s" depart="317" departLane="random" departSpeed="10" />
    <vehicle id="s_n_254" type="car" route="s_n" depart="318" departLane="random" departSpeed="10" />
    <vehicle id="n_w_255" type="car" route="n_w" depart="319" departLane="random" departSpeed="10" />
    <vehicle id="w_n_256" type="car" route="w_n" depart="320" departLane="random" departSpeed="10" />
    <vehicle id="s_n_257" type="car" route="s_n" depart="322" departLane="random" departSpeed="10" />
    <vehicle id="s_n_258" type="car" route="s_n" depart="323" departLane="random" departSpeed="10" />
    <vehicle id="w_n_259" type="car" route="w_n" depart="324" departLane="random" departSpeed="10" />
    <vehicle id="s_w_260" type="car" route="s_w" depart="325" departLane="random" departSpeed="10" />
    <vehicle id="n_e_261" type="car" route="n_e" depart="327" departLane="random" departSpeed="10" />
    <vehicle id="n_s_262" type="car" route="n_s" depart="328" departLane="random" departSpeed="10" />
    <vehicle id="s_n_263" type="car" route="s_n" depart="329" departLane="random" departSpeed="10" />
    <vehicle id="e_n_264" type="car" route="e_n" depart="330" departLane="random" departSpeed="10" />
    <vehicle id="e_w_265" type="car" route="e_w" depart="332" departLane="random" departSpeed="10" />
    <vehicle id="n_s_266" type="car" route="n_s" depart="333" departLane="random" departSpeed="10" />
    <vehicle id="n_w_267" type="car" route="n_w" depart="334" departLane="random" departSpeed="10" />
    <vehicle id="s_w_268" type="car" route="s_w" depart="335" departLane="random" departSpeed="10" />
    <vehicle id="w_n_269" type="car" route="w_n" depart="337" departLane="random" departSpeed="10" />
    <vehicle id="s_e_270" type="car" route="s_e" depart="338" departLane="random" departSpeed="10" />
    <vehicle id="n_w_271" type="car" route="n_w" depart="339" departLane="random" departSpeed="10" />
    <vehicle id="n_w_272" type="car" route="n_w" depart="340" departLane="random" departSpeed="10" />
    <vehicle id="s_n_273" type="car" route="s_n" depart="342" departLane="random" departSpeed="10" />
    <vehicle id="e_n_274" type="car" route="e_n" depart="343" departLane="random" departSpeed="10" />
    <vehicle id="w_e_275" type="car" route="w_e" depart="344" departLane="random" departSpeed="10" />
    <vehicle id="w_e_276" type="car" route="w_e" depart="345" departLane="random" departSpeed="10" />
    <vehicle id="w_e_277" type="car" route="w_e" depart="347" departLane="random" departSpeed="10" />
    <vehicle id="n_s_278" type="car" route="n_s" depart="348" departLane="random" departSpeed="10" />
    <vehicle id="s_e_279" type="car" route="s_e" depart="349" departLane="random" departSpeed="10" />
    <vehicle id="e_n_280" type="car" route="e_n" depart="350" departLane="random" departSpeed="10" />
    <vehicle id="s_e_281" type="car" route="s_e" depart="352" departLane="random" departSpeed="10" />
    <vehicle id="n_w_282" type="car" route="n_w" depart="353" departLane="random" departSpeed="10" />
    <vehicle id="e_w_283" type="car" route="e_w" depart="354" departLane="random" departSpeed="10" />
    <vehicle id="s_n_284" type="car" route="s_n" depart="355" departLane="random" departSpeed="10" />
    <vehicle id="e_n_285" type="car" route="e_n" depart="357" departLane="random" departSpeed="10" />
    <vehicle id="s_n_286" type="car" route="s_n" depart="358" departLane="random" departSpeed="10" />
    <vehicle id="s_e_287" type="car" route="s_e" depart="359" departLane="random" departSpeed="10" />