 <routes>
            <vType id="car" accel="0.8" decel="4.5" sigma="0.5" length="5" minGap="2.5" maxSpeed="20.0" />
            <route id="n_w" edges="nptocp cptowp"/>
            <route id="n_s" edges="nptocp cptosp"/>
            <route id="n_e" edges="nptocp cptoep"/>
            <route id="e_n" edges="eptocp cptonp"/>
            <route id="e_w" edges="eptocp cptowp"/>
            <route id="e_s" edges="eptocp cptosp"/>
            <route id="s_e" edges="sptocp cptoep"/>
            <route id="s_n" edges="sptocp cptonp"/>
            <route id="s_w" edges="sptocp cptowp"/>
            <route id="w_s" edges="wptocp cptosp"/>
            <route id="w_e" edges="wptocp cptoep"/>
            <route id="w_n" edges="wptocp cptonp"/>
    <vehicle id="n_s_0" type="car" route="n_s" depart="0" departLane="random" departSpeed="10" />
    <vehicle id="n_e_1" type="car" route="n_e" depart="1" departLane="random" departSpeed="10" />
    <vehicle id="n_w_2" type="car" route="n_w" depart="3" departLane="random" departSpeed="10" />
    <vehicle id="s_e_3" type="car" route="s_e" depart="5" departLane="random" departSpeed="10" />
    <vehicle id="e_w_4" type="car" route="e_w" depart="6" departLane="random" departSpeed="10" />
    <vehicle id="e_n_5" type="car" route="e_n" depart="8" departLane="random" departSpeed="10" />
    <vehicle id="s_n_6" type="car" route="s_n" depart="10" departLane="random" departSpeed="10" />
    <vehicle id="n_s_7" type="car" route="n_s" depart="11" departLane="random" departSpeed="10" />
    <vehicle id="n_s_8" type="car" route="n_s" depart="13" departLane="random" departSpeed="10" />
    <vehicle id="n_w_9" type="car" route="n_w" depart="15" departLane="random" departSpeed="10" />
    <vehicle id="e_n_10" type="car" route="e_n" depart="16" departLane="random" departSpeed="10" />
    <vehicle id="s_e_11" type="car" route="s_e" depart="18" departLane="random" departSpeed="10" />
    <vehicle id="n_w_12" type="car" route="n_w" depart="20" departLane="random" departSpeed="10" />
    <vehicle id="s_e_13" type="car" route="s_e" depart="21" departLane="random" departSpeed="10" />
    <vehicle id="n_w_14" type="car" route="n_w" depart="23" departLane="random" departSpeed="10" />
    <vehicle id="w_e_15" type="car" route="w_e" depart="25" departLane="random" departSpeed="10" />
    <vehicle id="w_n_16" type="car" route="w_n" depart="26" departLane="random" departSpeed="10" />
    <vehicle id="n_s_17" type="car" route="n_s" depart="28" departLane="random" departSpeed="10" />
    <vehicle id="w_s_18" type="car" route="w_s" depart="30" departLane="random" departSpeed="10" />
    <vehicle id="n_s_19" type="car" route="n_s" depart="31" departLane="random" departSpeed="10" />
    <vehicle id="e_n_20" type="car" route="e_n" depart="33" departLane="random" departSpeed="10" />
    <vehicle id="e_n_21" type="car" route="e_n" depart="35" departLane="random" departSpeed="10" />
    <vehicle id="s_e_22" type="car" route="s_e" depart="36" departLane="random" departSpeed="10" />
    <vehicle id="s_e_23" type="car" route="s_e" depart="38" departLane="random" departSpeed="10" />
    <vehicle id="s_n_24" type="car" route="s_n" depart="40" departLane="random" departSpeed="10" />
    <vehicle id="w_e_25" type="car" route="w_e" depart="41" departLane="random" departSpeed="10" />
    <vehicle id="n_w_26" type="car" route="n_w" depart="43" departLane="random" departSpeed="10" />
    <vehicle id="n_s_27" type="car" route="n_s" depart="45" departLane="random" departSpeed="10" />
    <vehicle id="e_w_28" type="car" route="e_w" depart="46" departLane="random" departSpeed="10" />
    <vehicle id="w_e_29" type="car" route="w_e" depart="48" departLane="random" departSpeed="10" />
    <vehicle id="w_e_30" type="car" route="w_e" depart="50" departLane="random" departSpeed="10" />
    <vehicle id="n_s_31" type="car" route="n_s" depart="51" departLane="random" departSpeed="10" />
    <vehicle id="s_w_32" type="car" route="s_w" depart="53" departLane="random" departSpeed="10" />
    <vehicle id="s_e_33" type="car" route="s_e" depart="55" departLane="random" departSpeed="10" />
    <vehicle id="n_s_34" type="car" route="n_s" depart="56" departLane="random" departSpeed="10" />
    <vehicle id="s_n_35" type="car" route="s_n" depart="58" departLane="random" departSpeed="10" />
    <vehicle id="w_s_36" type="car" route="w_s" depart="60" departLane="random" departSpeed="10" />
    <vehicle id="s_e_37" type="car" route="s_e" depart="61" departLane="random" departSpeed="10" />
    <vehicle id="n_s_38" type="car" route="n_s" depart="63" departLane="random" departSpeed="10" />
    <vehicle id="n_s_39" type="car" route="n_s" depart="65" departLane="random" departSpeed="10" />
    <vehicle id="w_e_40" type="car" route="w_e" depart="66" departLane="random" departSpeed="10" />
    <vehicle id="w_s_41" type="car" route="w_s" depart="68" departLane="random" departSpeed="10" />
    <vehicle id="w_s_42" type="car" route="w_s" depart="70" departLane="random" departSpeed="10" />
    <vehicle id="n_w_43" type="car" route="n_w" depart="71" departLane="random" departSpeed="10" />
    <vehicle id="s_n_44" type="car" route="s_n" depart="73" departLane="random" departSpeed="10" />
    <vehicle id="s_e_45" type="car" route="s_e" depart="75" departLane="random" departSpeed="10" />
    <vehicle id="s_n_46" type="car" route="s_n" depart="76" departLane="random" departSpeed="10" />
    <vehicle id="w_s_47" type="car" route="w_s" depart="78" departLane="random" departSpeed="10" />
    <vehicle id="e_w_48" type="car" route="e_w" depart="80" departLane="random" departSpeed="10" />
    <vehicle id="s_e_49" type="car" route="s_e" depart="81" departLane="random" departSpeed="10" />
    <vehicle id="s_n_50" type="car" route="s_n" depart="83" departLane="random" departSpeed="10" />
    <vehicle id="e_n_51" type="car" route="e_n" depart="85" departLane="random" departSpeed="10" />
    <vehicle id="s_n_52" type="car" route="s_n" depart="86" departLane="random" departSpeed="10" />
    <vehicle id="e_w_53" type="car" route="e_w" depart="88" departLane="random" departSpeed="10" />
    <vehicle id="w_e_54" type="car" route="w_e" depart="90" departLane="random" departSpeed="10" />
    <vehicle id="n_s_55" type="car" route="n_s" depart="91" departLane="random" departSpeed="10" />
    <vehicle id="n_s_56" type="car" route="n_s" depart="93" departLane="random" departSpeed="10" />
    <vehicle id="s_n_57" type="car" route="s_n" depart="95" departLane="random" departSpeed="10" />
    <vehicle id="s_n_58" type="car" route="s_n" depart="96" departLane="random" departSpeed="10" />
    <vehicle id="e_w_59" type="car" route="e_w" depart="98" departLane="random" departSpeed="10" />
    <vehicle id="s_e_60" type="car" route="s_e" depart="100" departLane="random" departSpeed="10" />
    <vehicle id="w_e_61" type="car" route="w_e" depart="102" departLane="random" departSpeed="10" />
    <vehicle id="n_s_62" type="car" route="n_s" depart="103" departLane="random" departSpeed="10" />
    <vehicle id="e_w_63" type="car" route="e_w" depart="105" departLane="random" departSpeed="10" />
    <vehicle id="e_n_64" type="car" route="e_n" depart="107" departLane="random" departSpeed="10" />
    <vehicle id="w_s_65" type="car" route="w_s" depart="108" departLane="random" departSpeed="10" />
    <vehicle id="s_e_66" type="car" route="s_e" depart="110" departLane="random" departSpeed="10" />
    <vehicle id="e_w_67" type="car" route="e_w" depart="112" departLane="random" departSpeed="10" />
    <vehicle id="s_n_68" type="car" route="s_n" depart="113" departLane="random" departSpeed="10" />
    <vehicle id="e_n_69" type="car" route="e_n" depart="115" departLane="random" departSpeed="10" />
    <vehicle id="s_e_70" type="car" route="s_e" depart="117" departLane="random" departSpeed="10" />
    <vehicle id="s_w_71" type="car" route="s_w" depart="118" departLane="random" departSpeed="10" />
    <vehicle id="e_w_72" type="car" route="e_w" depart="120" departLane="random" departSpeed="10" />
    <vehicle id="s_e_73" type="car" route="s_e" depart="122" departLane="random" departSpeed="10" />
    <vehicle id="w_s_74" type="car" route="w_s" depart="123" departLane="random" departSpeed="10" />
    <vehicle id="e_w_75" type="car" route="e_w" depart="125" departLane="random" departSpeed="10" />
    <vehicle id="s_n_76" type="car" route="s_n" depart="127" departLane="random" departSpeed="10" />
    <vehicle id="e_n_77" type="car" route="e_n" depart="128" departLane="random" departSpeed="10" />
    <vehicle id="n_w_78" type="car" route="n_w" depart="130" departLane="random" departSpeed="10" />
    <vehicle id="n_e_79" type="car" route="n_e" depart="132" departLane="random" departSpeed="10" />
    <vehicle id="s_w_80" type="car" route="s_w" depart="133" departLane="random" departSpeed="10" />
    <vehicle id="w_e_81" type="car" route="w_e" depart="135" departLane="random" departSpeed="10" />
    <vehicle id="w_e_82" type="car" route="w_e" depart="137" departLane="random" departSpeed="10" />
    <vehicle id="s_n_83" type="car" route="s_n" depart="138" departLane="random" departSpeed="10" />
    <vehicle id="e_n_84" type="car" route="e_n" depart="140" departLane="random" departSpeed="10" />
    <vehicle id="n_s_85" type="car" route="n_s" depart="142" departLane="random" departSpeed="10" />
    <vehicle id="w_s_86" type="car" route="w_s" depart="143" departLane="random" departSpeed="10" />
    <vehicle id="w_e_87" type="car" route="w_e" depart="145" departLane="random" departSpeed="10" />
    <vehicle id="s_w_88" type="car" route="s_w" depart="147" departLane="random" departSpeed="10" />
    <vehicle id="w_s_89" type="car" route="w_s" depart="148" departLane="random" departSpeed="10" />
    <vehicle id="e_w_90" type="car" route="e_w" depart="150" departLane="random" departSpeed="10" />
    <vehicle id="s_w_91" type="car" route="s_w" depart="152" departLane="random" departSpeed="10" />
    <vehicle id="n_w_92" type="car" route="n_w" depart="153" departLane="random" departSpeed="10" />
    <vehicle id="n_s_93" type="car" route="n_s" depart="155" departLane="random" departSpeed="10" />
    <vehicle id="w_s_94" type="car" route="w_s" depart="157" departLane="random" departSpeed="10" />
    <vehicle id="w_e_95" type="car" route="w_e" depart="158" departLane="random" departSpeed="10" />
    <vehicle id="e_s_96" type="car" route="e_s" depart="160" departLane="random" departSpeed="10" />
    <vehicle id="w_e_97" type="car" route="w_e" depart="162" departLane="random" departSpeed="10" />
    <vehicle id="n_e_98" type="car" route="n_e" depart="163" departLane="random" departSpeed="10" />
    <vehicle id="e_n_99" type="car" route="e_n" depart="165" departLane="random" departSpeed="10" />
    <vehicle id="e_w_100" type="car" route="e_w" depart="167" departLane="random" departSpeed="10" />
    <vehicle id="s_e_101" type="car" route="s_e" depart="168" departLane="random" departSpeed="10" />
    <vehicle id="w_e_102" type="car" route="w_e" depart="170" departLane="random" departSpeed="10" />
    <vehicle id="n_s_103" type="car" route="n_s" depart="172" departLane="random" departSpeed="10" />
    <vehicle id="e_n_104" type="car" route="e_n" depart="173" departLane="random" departSpeed="10" />
    <vehicle id="e_w_105" type="car" route="e_w" depart="175" departLane="random" departSpeed="10" />
    <vehicle id="w_s_106" type="car" route="w_s" depart="177" departLane="random" departSpeed="10" />
    <vehicle id="w_s_107" type="car" route="w_s" depart="178" departLane="random" departSpeed="10" />
    <vehicle id="w_s_108" type="car" route="w_s" depart="180" departLane="random" departSpeed="10" />
    <vehicle id="n_s_109" type="car" route="n_s" depart="182" departLane="random" departSpeed="10" />
    <vehicle id="w_s_110" type="car" route="w_s" depart="183" departLane="random" departSpeed="10" />
    <vehicle id="s_w_111" type="car" route="s_w" depart="185" departLane="random" departSpeed="10" />
    <vehicle id="w_e_112" type="car" route="w_e" depart="187" departLane="random" departSpeed="10" />
    <vehicle id="e_w_113" type="car" route="e_w" depart="188" departLane="random" departSpeed="10" />
    <vehicle id="e_w_114" type="car" route="e_w" depart="190" departLane="random" departSpeed="10" />
    <vehicle id="s_n_115" type="car" route="s_n" depart="192" departLane="random" departSpeed="10" />
    <vehicle id="e_w_116" type="car" route="e_w" depart="193" departLane="random" departSpeed="10" />
    <vehicle id="s_n_117" type="car" route="s_n" depart="195" departLane="random" departSpeed="10" />
    <vehicle id="w_s_118" type="car" route="w_s" depart="197" departLane="random" departSpeed="10" />
    <vehicle id="n_w_119" type="car" route="n_w" depart="198" departLane="random" departSpeed="10" />
    <vehicle id="n_w_120" type="car" route="n_w" depart="200" departLane="random" departSpeed="10" />
    <vehicle id="e_w_121" type="car" route="e_w" depart="202" departLane="random" departSpeed="10" />
    <vehicle id="s_n_122" type="car" route="s_n" depart="204" departLane="random" departSpeed="10" />
    <vehicle id="n_w_123" type="car" route="n_w" depart="205" departLane="random" departSpeed="10" />
    <vehicle id="s_e_124" type="car" route="s_e" depart="207" departLane="random" departSpeed="10" />
    <vehicle id="s_e_125" type="car" route="s_e" depart="209" departLane="random" departSpeed="10" />
    <vehicle id="s_e_126" type="car" route="s_e" depart="210" departLane="random" departSpeed="10" />
    <vehicle id="e_s_127" type="car" route="e_s" depart="212" departLane="random" departSpeed="10" />
    <vehicle id="s_e_128" type="car" route="s_e" depart="214" departLane="random" departSpeed="10" />
    <vehicle id="s_n_129" type="car" route="s_n" depart="215" departLane="random" departSpeed="10" />
    <vehicle id="s_n_130" type="car" route="s_n" depart="217" departLane="random" departSpeed="10" />
    <vehicle id="n_s_131" type="car" route="n_s" depart="219" departLane="random" departSpeed="10" />
    <vehicle id="e_s_132" type="car" route="e_s" depart="220" departLane="random" departSpeed="10" />
    <vehicle id="n_s_133" type="car" route="n_s" depart="222" departLane="random" departSpeed="10" />
    <vehicle id="e_n_134" type="car" route="e_n" depart="224" departLane="random" departSpeed="10" />
    <vehicle id="e_n_135" type="car" route="e_n" depart="225" departLane="random" departSpeed="10" />
    <vehicle id="n_w_136" type="car" route="n_w" depart="227" departLane="random" departSpeed="10" />
    <vehicle id="w_n_137" type="car" route="w_n" depart="229" departLane="random" departSpeed="10" />
    <vehicle id="s_n_138" type="car" route="s_n" depart="230" departLane="random" departSpeed="10" />
    <vehicle id="n_s_139" type="car" route="n_s" depart="232" departLane="random" departSpeed="10" />
    <vehicle id="w_n_140" type="car" route="w_n" depart="234" departLane="random" departSpeed="10" />
    <vehicle id="w_e_141" type="car" route="w_e" depart="235" departLane="random" departSpeed="10" />
    <vehicle id="n_s_142" type="car" route="n_s" depart="237" departLane="random" departSpeed="10" />
    <vehicle id="w_e_143" type="car" route="w_e" depart="239" departLane="random" departSpeed="10" />
    <vehicle id="s_w_144" type="car" route="s_w" depart="240" departLane="random" departSpeed="10" />
    <vehicle id="e_n_145" type="car" route="e_n" depart="242" departLane="random" departSpeed="10" />
    <vehicle id="w_e_146" type="car" route="w_e" depart="244" departLane="random" departSpeed="10" />
    <vehicle id="n_w_147" type="car" route="n_w" depart="245" departLane="random" departSpeed="10" />
    <vehicle id="e_s_148" type="car" route="e_s" depart="247" departLane="random" departSpeed="10" />
    <vehicle id="s_e_149" type="car" route="s_e" depart="249" departLane="random" departSpeed="10" />
    <vehicle id="s_e_150" type="car" route="s_e" depart="250" departLane="random" departSpeed="10" />
    <vehicle id="s_n_151" type="car" route="s_n" depart="252" departLane="random" departSpeed="10" />
    <vehicle id="s_w_152" type="car" route="s_w" depart="254" departLane="random" departSpeed="10" />
    <vehicle id="n_e_153" type="car" route="n_e" depart="255" departLane="random" departSpeed="10" />
    <vehicle id="e_w_154" type="car" route="e_w" depart="257" departLane="random" departSpeed="10" />
    <vehicle id="s_w_155" type="car" route="s_w" depart="259" departLane="random" departSpeed="10" />
    <vehicle id="w_e_156" type="car" route="w_e" depart="260" departLane="random" departSpeed="10" />
    <vehicle id="e_n_157" type="car" route="e_n" depart="262" departLane="random" departSpeed="10" />
    <vehicle id="e_w_158" type="car" route="e_w" depart="264" departLane="random" departSpeed="10" />
    <vehicle id="w_e_159" type="car" route="w_e" depart="265" departLane="random" departSpeed="10" />
    <vehicle id="w_s_160" type="car" route="w_s" depart="267" departLane="random" departSpeed="10" />
    <vehicle id="w_n_161" type="car" route="w_n" depart="269" departLane="random" departSpeed="10" />
    <vehicle id="s_e_162" type="car" route="s_e" depart="270" departLane="random" departSpeed="10" />
    <vehicle id="w_e_163" type="car" route="w_e" depart="272" departLane="random" departSpeed="10" />
    <vehicle id="s_n_164" type="car" route="s_n" depart="274" departLane="random" departSpeed="10" />
    <vehicle id="s_w_165" type="car" route="s_w" depart="275" departLane="random" departSpeed="10" />
    <vehicle id="s_n_166" type="car" route="s_n" depart="277" departLane="random" departSpeed="10" />
    <vehicle id="n_s_167" type="car" route="n_s" depart="279" departLane="random" departSpeed="10" />
    <vehicle id="n_w_168" type="car" route="n_w" depart="280" departLane="random" departSpeed="10" />
    <vehicle id="n_w_169" type="car" route="n_w" depart="282" departLane="random" departSpeed="10" />
    <vehicle id="w_s_170" type="car" route="w_s" depart="284" departLane="random" departSpeed="10" />
    <vehicle id="w_s_171" type="car" route="w_s" depart="285" departLane="random" departSpeed="10" />
    <vehicle id="n_w_172" type="car" route="n_w" depart="287" departLane="random" departSpeed="10" />
    <vehicle id="e_n_173" type="car" route="e_n" depart="289" departLane="random" departSpeed="10" />
    <vehicle id="w_s_174" type="car" route="w_s" depart="290" departLane="random" departSpeed="10" />
    <vehicle id="e_n_175" type="car" route="e_n" depart="292" departLane="random" departSpeed="10" />
    <vehicle id="s_e_176" type="car" route="s_e" depart="294" departLane="random" departSpeed="10" />
    <vehicle id="e_w_177" type="car" route="e_w" depart="295" departLane="random" departSpeed="10" />
    <vehicle id="s_w_178" type="car" route="s_w" depart="297" departLane="random" departSpeed="10" />
    <vehicle id="s_n_179" type="car" route="s_n" depart="299" departLane="random" departSpeed="10" />
    <vehicle id="s_e_180" type="car" route="s_e" depart="301" departLane="random" departSpeed="10" />
    <vehicle id="e_n_181" type="car" route="e_n" depart="302" departLane="random" departSpeed="10" />
    <vehicle id="w_s_182" type="car" route="w_s" depart="304" departLane="random" departSpeed="10" />
    <vehicle id="e_w_183" type="car" route="e_w" depart="306" departLane="random" departSpeed="10" />
    <vehicle id="w_n_184" type="car" route="w_n" depart="307" departLane="random" departSpeed="10" />
    <vehicle id="s_e_185" type="car" route="s_e" depart="309" departLane="random" departSpeed="10" />
    <vehicle id="n_s_186" type="car" route="n_s" depart="311" departLane="random" departSpeed="10" />
    <vehicle id="s_e_187" type="car" route="s_e" depart="312" departLane="random" departSpeed="10" />
    <vehicle id="w_s_188" type="car" route="w_s" depart="314" departLane="random" departSpeed="10" />
    <vehicle id="e_n_189" type="car" route="e_n" depart="316" departLane="random" departSpeed="10" />
    <vehicle id="s_n_190" type="car" route="s_n" depart="317" departLane="random" departSpeed="10" />
    <vehicle id="n_w_191" type="car" route="n_w" depart="319" departLane="random" departSpeed="10" />
    <vehicle id="w_e_192" type="car" route="w_e" depart="321" departLane="random" departSpeed="10" />
    <vehicle id="w_s_193" type="car" route="w_s" depart="322" departLane="random" departSpeed="10" />
    <vehicle id="n_e_194" type="car" route="n_e" depart="324" departLane="random" departSpeed="10" />
    <vehicle id="e_n_195" type="car" route="e_n" depart="326" departLane="random" departSpeed="10" />
    <vehicle id="w_n_196" type="car" route="w_n" depart="327" departLane="random" departSpeed="10" />
    <vehicle id="n_w_197" type="car" route="n_w" depart="329" departLane="random" departSpeed="10" />
    <vehicle id="e_w_198" type="car" route="e_w" depart="331" departLane="random" departSpeed="10" />
    <vehicle id="s_e_199" type="car" route="s_e" depart="332" departLane="random" departSpeed="10" />
    <vehicle id="s_e_200" type="car" route="s_e" depart="334" departLane="random" departSpeed="10" />
    <vehicle id="e_w_201" type="car" route="e_w" depart="336" departLane="random" departSpeed="10" />
    <vehicle id="w_e_202" type="car" route="w_e" depart="337" departLane="random" departSpeed="10" />
    <vehicle id="w_n_203" type="car" route="w_n" depart="339" departLane="random" departSpeed="10" />
    <vehicle id="n_w_204" type="car" route="n_w" depart="341" departLane="random" departSpeed="10" />
    <vehicle id="w_e_205" type="car" route="w_e" depart="342" departLane="random" departSpeed="10" />
    <vehicle id="s_e_206" type="car" route="s_e" depart="344" departLane="random" departSpeed="10" />
    <vehicle id="n_w_207" type="car" route="n_w" depart="346" departLane="random" departSpeed="10" />
    <vehicle id="n_w_208" type="car" route="n_w" depart="347" departLane="random" departSpeed="10" />
    <vehicle id="e_w_209" type="car" route="e_w" depart="349" departLane="random" departSpeed="10" />
    <vehicle id="e_w_210" type="car" route="e_w" depart="351" departLane="random" departSpeed="10" />
    <vehicle id="e_s_211" type="car" route="e_s" depart="352" departLane="random" departSpeed="10" />
    <vehicle id="s_e_212" type="car" route="s_e" depart="354" departLane="random" departSpeed="10" />
    <vehicle id="n_e_213" type="car" route="n_e" depart="356" departLane="random" departSpeed="10" />
    <vehicle id="s_n_214" type="car" route="s_n" depart="357" departLane="random" departSpeed="10" />
    <vehicle id="w_e_215" type="car" route="w_e" depart="359" departLane="random" departSpeed="10" />
    <vehicle id="w_s_216" type="car" route="w_s" depart="361" departLane="random" departSpeed="10" />
    <vehicle id="w_s_217" type="car" route="w_s" depart="362" departLane="random" departSpeed="10" />
    <vehicle id="e_n_218" type="car" route="e_n" depart="364" departLane="random" departSpeed="10" />
    <vehicle id="e_s_219" type="car" route="e_s" depart="366" departLane="random" departSpeed="10" />
    <vehicle id="w_e_220" type="car" route="w_e" depart="367" departLane="random" departSpeed="10" />
    <vehicle id="s_e_221" type="car" route="s_e" depart="369" departLane="random" departSpeed="10" />
    <vehicle id="w_e_222" type="car" route="w_e" depart="371" departLane="random" departSpeed="10" />
    <vehicle id="n_e_223" type="car" route="n_e" depart="372" departLane="random" departSpeed="10" />
    <vehicle id="n_s_224" type="car" route="n_s" depart="374" departLane="random" departSpeed="10" />
    <vehicle id="s_n_225" type="car" route="s_n" depart="376" departLane="random" departSpeed="10" />
    <vehicle id="n_s_226" type="car" route="n_s" depart="377" departLane="random" departSpeed="10" />
    <vehicle id="n_s_227" type="car" route="n_s" depart="379" departLane="random" departSpeed="10" />
    <vehicle id="e_n_228" type="car" route="e_n" depart="381" departLane="random" departSpeed="10" />
    <vehicle id="e_w_229" type="car" route="e_w" depart="382" departLane="random" departSpeed="10" />
    <vehicle id="w_s_230" type="car" route="w_s" depart="384" departLane="random" departSpeed="10" />
    <vehicle id="w_e_231" type="car" route="w_e" depart="386" departLane="random" departSpeed="10" />
    <vehicle id="e_n_232" type="car" route="e_n" depart="387" departLane="random" departSpeed="10" />
    <vehicle id="n_e_233" type="car" route="n_e" depart="389" departLane="random" departSpeed="10" />
    <vehicle id="w_s_234" type="car" route="w_s" depart="391" departLane="random" departSpeed="10" />
    <vehicle id="w_e_235" type="car" route="w_e" depart="392" departLane="random" departSpeed="10" />
    <vehicle id="s_e_236" type="car" route="s_e" depart="394" departLane="random" departSpeed="10" />
    <vehicle id="w_s_237" type="car" route="w_s" depart="396" departLane="random" departSpeed="10" />
    <vehicle id="n_w_238" type="car" route="n_w" depart="397" departLane="random" departSpeed="10" />
    <vehicle id="e_w_239" type="car" route="e_w" depart="399" departLane="random" departSpeed="10" />
    <vehicle id="w_e_240" type="car" route="w_e" depart="401" departLane="random" departSpeed="10" />
    <vehicle id="w_e_241" type="car" route="w_e" depart="403" departLane="random" departSpeed="10" />
    <vehicle id="s_e_242" type="car" route="s_e" depart="404" departLane="random" departSpeed="10" />
    <vehicle id="n_e_243" type="car" route="n_e" depart="406" departLane="random" departSpeed="10" />
    <vehicle id="e_n_244" type="car" route="e_n" depart="408" departLane="random" departSpeed="10" />
    <vehicle id="e_w_245" type="car" route="e_w" depart="409" departLane="random" departSpeed="10" />
    <vehicle id="n_w_246" type="car" route="n_w" depart="411" departLane="random" departSpeed="10" />
    <vehicle id="s_e_247" type="car" route="s_e" depart="413" departLane="random" departSpeed="10" />
    <vehicle id="n_e_248" type="car" route="n_e" depart="414" departLane="random" departSpeed="10" />
    <vehicle id="n_e_249" type="car" route="n_e" depart="416" departLane="random" departSpeed="10" />
    <vehicle id="s_e_250" type="car" route="s_e" depart="418" departLane="random" departSpeed="10" />
    <vehicle id="e_n_251" type="car" route="e_n" depart="419" departLane="random" departSpeed="10" />
    <vehicle id="w_s_252" type="car" route="w_s" depart="421" departLane="random" departSpeed="10" />
    <vehicle id="s_w_253" type="car" route="s_w" depart="423" departLane="random" departSpeed="10" />
    <vehicle id="w_s_254" type="car" route="w_s" depart="424" departLane="random" departSpeed="10" />
    <vehicle id="e_w_255" type="car" route="e_w" depart="426" departLane="random" departSpeed="10" />
    <vehicle id="n_w_256" type="car" route="n_w" depart="428" departLane="random" departSpeed="10" />
    <vehicle id="n_w_257" type="car" route="n_w" depart="429" departLane="random" departSpeed="10" />
    <vehicle id="w_n_258" type="car" route="w_n" depart="431" departLane="random" departSpeed="10" />
    <vehicle id="s_n_259" type="car" route="s_n" depart="433" departLane="random" departSpeed="10" />
    <vehicle id="n_w_260" type="car" route="n_w" depart="434" departLane="random" departSpeed="10" />
    <vehicle id="w_e_261" type="car" route="w_e" depart="436" departLane="random" departSpeed="10" />
    <vehicle id="s_e_262" type="car" route="s_e" depart="438" departLane="random" departSpeed="10" />
    <vehicle id="w_s_263" type="car" route="w_s" depart="439" departLane="random" departSpeed="10" />
    <vehicle id="w_s_264" type="car" route="w_s" depart="441" departLane="random" departSpeed="10" />
    <vehicle id="e_n_265" type="car" route="e_n" depart="443" departLane="random" departSpeed="10" />
    <vehicle id="e_w_266" type="car" route="e_w" depart="444" departLane="random" departSpeed="10" />
    <vehicle id="e_n_267" type="car" route="e_n" depart="446" departLane="random" departSpeed="10" />
    <vehicle id="s_n_268" type="car" route="s_n" depart="448" departLane="random" departSpeed="10" />
    <vehicle id="w_n_269" type="car" route="w_n" depart="449" departLane="random" departSpeed="10" />
    <vehicle id="n_s_270" type="car" route="n_s" depart="451" departLane="random" departSpeed="10" />
    <vehicle id="n_w_271" type="car" route="n_w" depart="453" departLane="random" departSpeed="10" />
    <vehicle id="s_e_272" type="car" route="s_e" depart="454" departLane="random" departSpeed="10" />
    <vehicle id="s_e_273" type="car" route="s_e" depart="456" departLane="random" departSpeed="10" />
    <vehicle id="e_w_274" type="car" route="e_w" depart="458" departLane="random" departSpeed="10" />
    <vehicle id="s_w_275" type="car" route="s_w" depart="459" departLane="random" departSpeed="10" />
    <vehicle id="s_e_276" type="car" route="s_e" depart="461" departLane="random" departSpeed="10" />
    <vehicle id="s_e_277" type="car" route="s_e" depart="463" departLane="random" departSpeed="10" />
    <vehicle id="n_s_278" type="car" route="n_s" depart="464" departLane="random" departSpeed="10" />
    <vehicle id="n_s_279" type="car" route="n_s" depart="466" departLane="random" departSpeed="10" />
    <vehicle id="w_e_280" type="car" route="w_e" depart="468" departLane="random" departSpeed="10" />
    <vehicle id="s_e_281" type="car" route="s_e" depart="469" departLane="random" departSpeed="10" />
    <vehicle id="e_w_282" type="car" route="e_w" depart="471" departLane="random" departSpeed="10" />
    <vehicle id="e_w_283" type="car" route="e_w" depart="473" departLane="random" departSpeed="10" />
    <vehicle id="e_w_284" type="car" route="e_w" depart="474" departLane="random" departSpeed="10" />
    <vehicle id="e_n_285" type="car" route="e_n" depart="476" departLane="random" departSpeed="10" />
    <vehicle id="s_e_286" type="car" route="s_e" depart="478" departLane="random" departSpeed="10" />
    <vehicle id="w_e_287" type="car" route="w_e" depart="479" departLane="random" departSpeed="10" />