 <routes>
            <vType id="car" accel="0.8" decel="4.5" sigma="0.5" length="5" minGap="2.5" maxSpeed="20.0" />
            <route id="n_w" edges="nptocp cptowp"/>
            <route id="n_s" edges="nptocp cptosp"/>
            <route id="n_e" edges="nptocp cptoep"/>
            <route id="e_n" edges="eptocp cptonp"/>
            <route id="e_w" edges="eptocp cptowp"/>
            <route id="e_s" edges="eptocp cptosp"/>
            <route id="s_e" edges="sptocp cptoep"/>
            <route id="s_n" edges="sptocp cptonp"/>
            <route id="s_w" edges="sptocp cptowp"/>
            <route id="w_s" edges="wptocp cptosp"/>
            <route id="w_e" edges="wptocp cptoep"/>
            <route id="w_n" edges="wptocp cptonp"/>
    <vehicle id="w_e_0" type="car" route="w_e" depart="0" departLane="random" departSpeed="10" />
    <vehicle id="s_w_1" type="car" route="s_w" depart="1" departLane="random" departSpeed="10" />
    <vehicle id="w_e_2" type="car" route="w_e" depart="3" departLane="random" departSpeed="10" />
    <vehicle id="w_e_3" type="car" route="w_e" depart="5" departLane="random" departSpeed="10" />
    <vehicle id="e_n_4" type="car" route="e_n" depart="6" departLane="random" departSpeed="10" />
    <vehicle id="w_n_5" type="car" route="w_n" depart="8" departLane="random" departSpeed="10" />
    <vehicle id="s_e_6" type="car" route="s_e" depart="10" departLane="random" departSpeed="10" />
    <vehicle id="n_s_7" type="car" route="n_s" depart="11" departLane="random" departSpeed="10" />
    <vehicle id="s_n_8" type="car" route="s_n" depart="13" departLane="random" departSpeed="10" />
    <vehicle id="s_n_9" type="car" route="s_n" depart="15" departLane="random" departSpeed="10" />
    <vehicle id="s_w_10" type="car" route="s_w" depart="16" departLane="random" departSpeed="10" />
    <vehicle id="w_s_11" type="car" route="w_s" depart="18" departLane="random" departSpeed="10" />
    <vehicle id="e_w_12" type="car" route="e_w" depart="20" departLane="random" departSpeed="10" />
    <vehicle id="e_n_13" type="car" route="e_n" depart="21" departLane="random" departSpeed="10" />
    <vehicle id="n_w_14" type="car" route="n_w" depart="23" departLane="random" departSpeed="10" />
    <vehicle id="w_e_15" type="car" route="w_e" depart="25" departLane="random" departSpeed="10" />
    <vehicle id="n_w_16" type="car" route="n_w" depart="26" departLane="random" departSpeed="10" />
    <vehicle id="e_w_17" type="car" route="e_w" depart="28" departLane="random" departSpeed="10" />
    <vehicle id="w_s_18" type="car" route="w_s" depart="30" departLane="random" departSpeed="10" />
    <vehicle id="e_n_19" type="car" route="e_n" depart="31" departLane="random" departSpeed="10" />
    <vehicle id="w_s_20" type="car" route="w_s" depart="33" departLane="random" departSpeed="10" />
    <vehicle id="n_s_21" type="car" route="n_s" depart="35" departLane="random" departSpeed="10" />
    <vehicle id="n_s_22" type="car" route="n_s" depart="36" departLane="random" departSpeed="10" />
    <vehicle id="n_e_23" type="car" route="n_e" depart="38" departLane="random" departSpeed="10" />
    <vehicle id="e_w_24" type="car" route="e_w" depart="40" departLane="random" departSpeed="10" />
    <vehicle id="n_e_25" type="car" route="n_e" depart="41" departLane="random" departSpeed="10" />
    <vehicle id="w_e_26" type="car" route="w_e" depart="43" departLane="random" departSpeed="10" />
    <vehicle id="e_w_27" type="car" route="e_w" depart="45" departLane="random" departSpeed="10" />
    <vehicle id="w_e_28" type="car" route="w_e" depart="46" departLane="random" departSpeed="10" />
    <vehicle id="n_s_29" type="car" route="n_s" depart="48" departLane="random" departSpeed="10" />
    <vehicle id="n_s_30" type="car" route="n_s" depart="50" departLane="random" departSpeed="10" />
    <vehicle id="e_w_31" type="car" route="e_w" depart="51" departLane="random" departSpeed="10" />
    <vehicle id="n_s_32" type="car" route="n_s" depart="53" departLane="random" departSpeed="10" />
    <vehicle id="n_s_33" type="car" route="n_s" depart="55" departLane="random" departSpeed="10" />
    <vehicle id="s_e_34" type="car" route="s_e" depart="56" departLane="random" departSpeed="10" />
    <vehicle id="w_n_35" type="car" route="w_n" depart="58" departLane="random" departSpeed="10" />
    <vehicle id="n_w_36" type="car" route="n_w" depart="60" departLane="random" departSpeed="10" />
    <vehicle id="n_w_37" type="car" route="n_w" depart="61" departLane="random" departSpeed="10" />
    <vehicle id="s_e_38" type="car" route="s_e" depart="63" departLane="random" departSpeed="10" />
    <vehicle id="s_w_39" type="car" route="s_w" depart="65" departLane="random" departSpeed="10" />
    <vehicle id="e_w_40" type="car" route="e_w" depart="66" departLane="random" departSpeed="10" />
    <vehicle id="s_n_41" type="car" route="s_n" depart="68" departLane="random" departSpeed="10" />
    <vehicle id="s_e_42" type="car" route="s_e" depart="70" departLane="random" departSpeed="10" />
    <vehicle id="w_s_43" type="car" route="w_s" depart="71" departLane="random" departSpeed="10" />
    <vehicle id="s_e_44" type="car" route="s_e" depart="73" departLane="random" departSpeed="10" />
    <vehicle id="s_e_45" type="car" route="s_e" depart="75" departLane="random" departSpeed="10" />
    <vehicle id="s_n_46" type="car" route="s_n" depart="76" departLane="random" departSpeed="10" />
    <vehicle id="e_w_47" type="car" route="e_w" depart="78" departLane="random" departSpeed="10" />
    <vehicle id="s_e_48" type="car" route="s_e" depart="80" departLane="random" departSpeed="10" />
    <vehicle id="n_w_49" type="car" route="n_w" depart="81" departLane="random" departSpeed="10" />
    <vehicle id="w_n_50" type="car" route="w_n" depart="83" departLane="random" departSpeed="10" />
    <vehicle id="s_e_51" type="car" route="s_e" depart="85" departLane="random" departSpeed="10" />
    <vehicle id="e_w_52" type="car" route="e_w" depart="86" departLane="random" departSpeed="10" />
    <vehicle id="s_e_53" type="car" route="s_e" depart="88" departLane="random" departSpeed="10" />
    <vehicle id="n_s_54" type="car" route="n_s" depart="90" departLane="random" departSpeed="10" />
    <vehicle id="n_e_55" type="car" route="n_e" depart="91" departLane="random" departSpeed="10" />
    <vehicle id="w_e_56" type="car" route="w_e" depart="93" departLane="random" departSpeed="10" />
    <vehicle id="w_e_57" type="car" route="w_e" depart="95" departLane="random" departSpeed="10" />
    <vehicle id="w_s_58" type="car" route="w_s" depart="96" departLane="random" departSpeed="10" />
    <vehicle id="n_w_59" type="car" route="n_w" depart="98" departLane="random" departSpeed="10" />
    <vehicle id="e_w_60" type="car" route="e_w" depart="100" departLane="random" departSpeed="10" />
    <vehicle id="w_n_61" type="car" route="w_n" depart="101" departLane="random" departSpeed="10" />
    <vehicle id="w_s_62" type="car" route="w_s" depart="103" departLane="random" departSpeed="10" />
    <vehicle id="n_s_63" type="car" route="n_s" depart="105" departLane="random" departSpeed="10" />
    <vehicle id="e_n_64" type="car" route="e_n" depart="106" departLane="random" departSpeed="10" />
    <vehicle id="s_w_65" type="car" route="s_w" depart="108" departLane="random" departSpeed="10" />
    <vehicle id="w_s_66" type="car" route="w_s" depart="110" departLane="random" departSpeed="10" />
    <vehicle id="n_e_67" type="car" route="n_e" depart="111" departLane="random" departSpeed="10" />
    <vehicle id="s_n_68" type="car" route="s_n" depart="113" departLane="random" departSpeed="10" />
    <vehicle id="n_w_69" type="car" route="n_w" depart="115" departLane="random" departSpeed="10" />
    <vehicle id="s_e_70" type="car" route="s_e" depart="116" departLane="random" departSpeed="10" />
    <vehicle id="e_n_71" type="car" route="e_n" depart="118" departLane="random" departSpeed="10" />
    <vehicle id="e_n_72" type="car" route="e_n" depart="120" departLane="random" departSpeed="10" />
    <vehicle id="s_w_73" type="car" route="s_w" depart="121" departLane="random" departSpeed="10" />
    <vehicle id="e_n_74" type="car" route="e_n" depart="123" departLane="random" departSpeed="10" />
    <vehicle id="e_s_75" type="car" route="e_s" depart="125" departLane="random" departSpeed="10" />
    <vehicle id="n_s_76" type="car" route="n_s" depart="126" departLane="random" departSpeed="10" />
    <vehicle id="s_e_77" type="car" route="s_e" depart="128" departLane="random" departSpeed="10" />
    <vehicle id="n_s_78" type="car" route="n_s" depart="130" departLane="random" departSpeed="10" />
    <vehicle id="e_w_79" type="car" route="e_w" depart="131" departLane="random" departSpeed="10" />
    <vehicle id="e_n_80" type="car" route="e_n" depart="133" departLane="random" departSpeed="10" />
    <vehicle id="n_w_81" type="car" route="n_w" depart="135" departLane="random" departSpeed="10" />
    <vehicle id="n_w_82" type="car" route="n_w" depart="136" departLane="random" departSpeed="10" />
    <vehicle id="n_e_83" type="car" route="n_e" depart="138" departLane="random" departSpeed="10" />
    <vehicle id="s_w_84" type="car" route="s_w" depart="140" departLane="random" departSpeed="10" />
    <vehicle id="w_e_85" type="car" route="w_e" depart="141" departLane="random" departSpeed="10" />
    <vehicle id="w_s_86" type="car" route="w_s" depart="143" departLane="random" departSpeed="10" />
    <vehicle id="s_n_87" type="car" route="s_n" depart="145" departLane="random" departSpeed="10" />
    <vehicle id="w_s_88" type="car" route="w_s" depart="146" departLane="random" departSpeed="10" />
    <vehicle id="s_e_89" type="car" route="s_e" depart="148" departLane="random" departSpeed="10" />
    <vehicle id="n_w_90" type="car" route="n_w" depart="150" departLane="random" departSpeed="10" />
    <vehicle id="w_e_91" type="car" route="w_e" depart="151" departLane="random" departSpeed="10" />
    <vehicle id="s_n_92" type="car" route="s_n" depart="153" departLane="random" departSpeed="10" />
    <vehicle id="n_w_93" type="car" route="n_w" depart="155" departLane="random" departSpeed="10" />
    <vehicle id="n_w_94" type="car" route="n_w" depart="156" departLane="random" departSpeed="10" />
    <vehicle id="s_n_95" type="car" route="s_n" depart="158" departLane="random" departSpeed="10" />
    <vehicle id="n_s_96" type="car" route="n_s" depart="160" departLane="random" departSpeed="10" />
    <vehicle id="n_s_97" type="car" route="n_s" depart="161" departLane="random" departSpeed="10" />
    <vehicle id="s_n_98" type="car" route="s_n" depart="163" departLane="random" departSpeed="10" />
    <vehicle id="e_s_99" type="car" route="e_s" depart="165" departLane="random" departSpeed="10" />
    <vehicle id="w_e_100" type="car" route="w_e" depart="166" departLane="random" departSpeed="10" />
    <vehicle id="s_n_101" type="car" route="s_n" depart="168" departLane="random" departSpeed="10" />
    <vehicle id="s_w_102" type="car" route="s_w" depart="170" departLane="random" departSpeed="10" />
    <vehicle id="w_e_103" type="car" route="w_e" depart="171" departLane="random" departSpeed="10" />
    <vehicle id="n_s_104" type="car" route="n_s" depart="173" departLane="random" departSpeed="10" />
    <vehicle id="w_s_105" type="car" route="w_s" depart="175" departLane="random" departSpeed="10" />
    <vehicle id="e_n_106" type="car" route="e_n" depart="176" departLane="random" departSpeed="10" />
    <vehicle id="n_s_107" type="car" route="n_s" depart="178" departLane="random" departSpeed="10" />
    <vehicle id="w_s_108" type="car" route="w_s" depart="180" departLane="random" departSpeed="10" />
    <vehicle id="e_w_109" type="car" route="e_w" depart="181" departLane="random" departSpeed="10" />
    <vehicle id="w_e_110" type="car" route="w_e" depart="183" departLane="random" departSpeed="10" />
    <vehicle id="s_n_111" type="car" route="s_n" depart="185" departLane="random" departSpeed="10" />
    <vehicle id="e_s_112" type="car" route="e_s" depart="186" departLane="random" departSpeed="10" />
    <vehicle id="e_w_113" type="car" route="e_w" depart="188" departLane="random" departSpeed="10" />
    <vehicle id="n_s_114" type="car" route="n_s" depart="190" departLane="random" departSpeed="10" />
    <vehicle id="w_e_115" type="car" route="w_e" depart="191" departLane="random" departSpeed="10" />
    <vehicle id="s_e_116" type="car" route="s_e" depart="193" departLane="random" departSpeed="10" />
    <vehicle id="e_w_117" type="car" route="e_w" depart="195" departLane="random" departSpeed="10" />
    <vehicle id="s_n_118" type="car" route="s_n" depart="196" departLane="random" departSpeed="10" />
    <vehicle id="w_s_119" type="car" route="w_s" depart="198" departLane="random" departSpeed="10" />
    <vehicle id="w_e_120" type="car" route="w_e" depart="200" departLane="random" departSpeed="10" />
    <vehicle id="w_e_121" type="car" route="w_e" depart="202" departLane="random" departSpeed="10" />
    <vehicle id="s_n_122" type="car" route="s_n" depart="203" departLane="random" departSpeed="10" />
    <vehicle id="n_w_123" type="car" route="n_w" depart="205" departLane="random" departSpeed="10" />
    <vehicle id="e_s_124" type="car" route="e_s" depart="207" departLane="random" departSpeed="10" />
    <vehicle id="n_s_125" type="car" route="n_s" depart="208" departLane="random" departSpeed="10" />
    <vehicle id="n_w_126" type="car" route="n_w" depart="210" departLane="random" departSpeed="10" />
    <vehicle id="e_w_127" type="car" route="e_w" depart="212" departLane="random" departSpeed="10" />
    <vehicle id="s_w_128" type="car" route="s_w" depart="213" departLane="random" departSpeed="10" />
    <vehicle id="s_e_129" type="car" route="s_e" depart="215" departLane="random" departSpeed="10" />
    <vehicle id="s_n_130" type="car" route="s_n" depart="217" departLane="random" departSpeed="10" />
    <vehicle id="e_n_131" type="car" route="e_n" depart="218" departLane="random" departSpeed="10" />
    <vehicle id="e_s_132" type="car" route="e_s" depart="220" departLane="random" departSpeed="10" />
    <vehicle id="e_w_133" type="car" route="e_w" depart="222" departLane="random" departSpeed="10" />
    <vehicle id="s_w_134" type="car" route="s_w" depart="223" departLane="random" departSpeed="10" />
    <vehicle id="w_e_135" type="car" route="w_e" depart="225" departLane="random" departSpeed="10" />
    <vehicle id="w_e_136" type="car" route="w_e" depart="227" departLane="random" departSpeed="10" />
    <vehicle id="s_e_137" type="car" route="s_e" depart="228" departLane="random" departSpeed="10" />
    <vehicle id="s_n_138" type="car" route="s_n" depart="230" departLane="random" departSpeed="10" />
    <vehicle id="w_n_139" type="car" route="w_n" depart="232" departLane="random" departSpeed="10" />
    <vehicle id="n_s_140" type="car" route="n_s" depart="233" departLane="random" departSpeed="10" />
    <vehicle id="n_w_141" type="car" route="n_w" depart="235" departLane="random" departSpeed="10" />
    <vehicle id="n_e_142" type="car" route="n_e" depart="237" departLane="random" departSpeed="10" />
    <vehicle id="e_n_143" type="car" route="e_n" depart="238" departLane="random" departSpeed="10" />
    <vehicle id="e_w_144" type="car" route="e_w" depart="240" departLane="random" departSpeed="10" />
    <vehicle id="s_e_145" type="car" route="s_e" depart="242" departLane="random" departSpeed="10" />
    <vehicle id="n_w_146" type="car" route="n_w" depart="243" departLane="random" departSpeed="10" />
    <vehicle id="n_e_147" type="car" route="n_e" depart="245" departLane="random" departSpeed="10" />
    <vehicle id="s_e_148" type="car" route="s_e" depart="247" departLane="random" departSpeed="10" />
    <vehicle id="s_n_149" type="car" route="s_n" depart="248" departLane="random" departSpeed="10" />
    <vehicle id="e_n_150" type="car" route="e_n" depart="250" departLane="random" departSpeed="10" />
    <vehicle id="w_e_151" type="car" route="w_e" depart="252" departLane="random" departSpeed="10" />
    <vehicle id="n_w_152" type="car" route="n_w" depart="253" departLane="random" departSpeed="10" />
    <vehicle id="e_w_153" type="car" route="e_w" depart="255" departLane="random" departSpeed="10" />
    <vehicle id="w_s_154" type="car" route="w_s" depart="257" departLane="random" departSpeed="10" />
    <vehicle id="e_s_155" type="car" route="e_s" depart="258" departLane="random" departSpeed="10" />
    <vehicle id="w_e_156" type="car" route="w_e" depart="260" departLane="random" departSpeed="10" />
    <vehicle id="w_n_157" type="car" route="w_n" depart="262" departLane="random" departSpeed="10" />
    <vehicle id="s_e_158" type="car" route="s_e" depart="263" departLane="random" departSpeed="10" />
    <vehicle id="e_s_159" type="car" route="e_s" depart="265" departLane="random" departSpeed="10" />
    <vehicle id="w_e_160" type="car" route="w_e" depart="267" departLane="random" departSpeed="10" />
    <vehicle id="s_n_161" type="car" route="s_n" depart="268" departLane="random" departSpeed="10" />
    <vehicle id="s_e_162" type="car" route="s_e" depart="270" departLane="random" departSpeed="10" />
    <vehicle id="s_n_163" type="car" route="s_n" depart="272" departLane="random" departSpeed="10" />
    <vehicle id="e_s_164" type="car" route="e_s" depart="273" departLane="random" departSpeed="10" />
    <vehicle id="w_s_165" type="car" route="w_s" depart="275" departLane="random" departSpeed="10" />
    <vehicle id="n_w_166" type="car" route="n_w" depart="277" departLane="random" departSpeed="10" />
    <vehicle id="e_s_167" type="car" route="e_s" depart="278" departLane="random" departSpeed="10" />
    <vehicle id="w_s_168" type="car" route="w_s" depart="280" departLane="random" departSpeed="10" />
    <vehicle id="n_w_169" type="car" route="n_w" depart="282" departLane="random" departSpeed="10" />
    <vehicle id="w_e_170" type="car" route="w_e" depart="283" departLane="random" departSpeed="10" />
    <vehicle id="s_n_171" type="car" route="s_n" depart="285" departLane="random" departSpeed="10" />
    <vehicle id="s_n_172" type="car" route="s_n" depart="287" departLane="random" departSpeed="10" />
    <vehicle id="e_n_173" type="car" route="e_n" depart="288" departLane="random" departSpeed="10" />
    <vehicle id="e_w_174" type="car" route="e_w" depart="290" departLane="random" departSpeed="10" />
    <vehicle id="s_n_175" type="car" route="s_n" depart="292" departLane="random" departSpeed="10" />
    <vehicle id="n_w_176" type="car" route="n_w" depart="293" departLane="random" departSpeed="10" />
    <vehicle id="w_e_177" type="car" route="w_e" depart="295" departLane="random" departSpeed="10" />
    <vehicle id="w_e_178" type="car" route="w_e" depart="297" departLane="random" departSpeed="10" />
    <vehicle id="n_w_179" type="car" route="n_w" depart="298" departLane="random" departSpeed="10" />
    <vehicle id="n_e_180" type="car" route="n_e" depart="300" departLane="random" departSpeed="10" />
    <vehicle id="e_s_181" type="car" route="e_s" depart="302" departLane="random" departSpeed="10" />
    <vehicle id="w_e_182" type="car" route="w_e" depart="303" departLane="random" departSpeed="10" />
    <vehicle id="w_s_183" type="car" route="w_s" depart="305" departLane="random" departSpeed="10" />
    <vehicle id="w_e_184" type="car" route="w_e" depart="307" departLane="random" departSpeed="10" />
    <vehicle id="s_n_185" type="car" route="s_n" depart="308" departLane="random" departSpeed="10" />
    <vehicle id="s_n_186" type="car" route="s_n" depart="310" departLane="random" departSpeed="10" />
    <vehicle id="n_e_187" type="car" route="n_e" depart="312" departLane="random" departSpeed="10" />
    <vehicle id="e_n_188" type="car" route="e_n" depart="313" departLane="random" departSpeed="10" />
    <vehicle id="s_n_189" type="car" route="s_n" depart="315" departLane="random" departSpeed="10" />
    <vehicle id="n_w_190" type="car" route="n_w" depart="317" departLane="random" departSpeed="10" />
    <vehicle id="e_s_191" type="car" route="e_s" depart="318" departLane="random" departSpeed="10" />
    <vehicle id="e_n_192" type="car" route="e_n" depart="320" departLane="random" departSpeed="10" />
    <vehicle id="n_w_193" type="car" route="n_w" depart="322" departLane="random" departSpeed="10" />
    <vehicle id="w_e_194" type="car" route="w_e" depart="323" departLane="random" departSpeed="10" />
    <vehicle id="n_w_195" type="car" route="n_w" depart="325" departLane="random" departSpeed="10" />
    <vehicle id="s_n_196" type="car" route="s_n" depart="327" departLane="random" departSpeed="10" />
    <vehicle id="e_w_197" type="car" route="e_w" depart="328" departLane="random" departSpeed="10" />
    <vehicle id="s_n_198" type="car" route="s_n" depart="330" departLane="random" departSpeed="10" />
    <vehicle id="e_w_199" type="car" route="e_w" depart="332" departLane="random" departSpeed="10" />
    <vehicle id="n_w_200" type="car" route="n_w" depart="333" departLane="random" departSpeed="10" />
    <vehicle id="w_e_201" type="car" route="w_e" depart="335" departLane="random" departSpeed="10" />
    <vehicle id="n_w_202" type="car" route="n_w" depart="337" departLane="random" departSpeed="10" />
    <vehicle id="s_n_203" type="car" route="s_n" depart="338" departLane="random" departSpeed="10" />
    <vehicle id="e_s_204" type="car" route="e_s" depart="340" departLane="random" departSpeed="10" />
    <vehicle id="w_e_205" type="car" route="w_e" depart="342" departLane="random" departSpeed="10" />
    <vehicle id="s_n_206" type="car" route="s_n" depart="343" departLane="random" departSpeed="10" />
    <vehicle id="w_s_207" type="car" route="w_s" depart="345" departLane="random" departSpeed="10" />
    <vehicle id="w_e_208" type="car" route="w_e" depart="347" departLane="random" departSpeed="10" />
    <vehicle id="n_e_209" type="car" route="n_e" depart="348" departLane="random" departSpeed="10" />
    <vehicle id="w_s_210" type="car" route="w_s" depart="350" departLane="random" departSpeed="10" />
    <vehicle id="s_n_211" type="car" route="s_n" depart="352" departLane="random" departSpeed="10" />
    <vehicle id="e_w_212" type="car" route="e_w" depart="353" departLane="random" departSpeed="10" />
    <vehicle id="s_n_213" type="car" route="s_n" depart="355" departLane="random" departSpeed="10" />
    <vehicle id="s_e_214" type="car" route="s_e" depart="357" departLane="random" departSpeed="10" />
    <vehicle id="w_e_215" type="car" route="w_e" depart="358" departLane="random" departSpeed="10" />
    <vehicle id="w_s_216" type="car" route="w_s" depart="360" departLane="random" departSpeed="10" />
    <vehicle id="e_n_217" type="car" route="e_n" depart="362" departLane="random" departSpeed="10" />
    <vehicle id="s_w_218" type="car" route="s_w" depart="363" departLane="random" departSpeed="10" />
    <vehicle id="e_w_219" type="car" route="e_w" depart="365" departLane="random" departSpeed="10" />
    <vehicle id="e_s_220" type="car" route="e_s" depart="367" departLane="random" departSpeed="10" />
    <vehicle id="e_w_221" type="car" route="e_w" depart="368" departLane="random" departSpeed="10" />
    <vehicle id="w_s_222" type="car" route="w_s" depart="370" departLane="random" departSpeed="10" />
    <vehicle id="s_e_223" type="car" route="s_e" depart="372" departLane="random" departSpeed="10" />
    <vehicle id="w_e_224" type="car" route="w_e" depart="373" departLane="random" departSpeed="10" />
    <vehicle id="s_n_225" type="car" route="s_n" depart="375" departLane="random" departSpeed="10" />
    <vehicle id="s_w_226" type="car" route="s_w" depart="377" departLane="random" departSpeed="10" />
    <vehicle id="n_s_227" type="car" route="n_s" depart="378" departLane="random" departSpeed="10" />
    <vehicle id="n_w_228" type="car" route="n_w" depart="380" departLane="random" departSpeed="10" />
    <vehicle id="w_e_229" type="car" route="w_e" depart="382" departLane="random" departSpeed="10" />
    <vehicle id="w_s_230" type="car" route="w_s" depart="383" departLane="random" departSpeed="10" />
    <vehicle id="w_s_231" type="car" route="w_s" depart="385" departLane="random" departSpeed="10" />
    <vehicle id="s_w_232" type="car" route="s_w" depart="387" departLane="random" departSpeed="10" />
    <vehicle id="s_n_233" type="car" route="s_n" depart="388" departLane="random" departSpeed="10" />
    <vehicle id="e_n_234" type="car" route="e_n" depart="390" departLane="random" departSpeed="10" />
    <vehicle id="n_s_235" type="car" route="n_s" depart="392" departLane="random" departSpeed="10" />
    <vehicle id="e_n_236" type="car" route="e_n" depart="393" departLane="random" departSpeed="10" />
    <vehicle id="s_n_237" type="car" route="s_n" depart="395" departLane="random" departSpeed="10" />
    <vehicle id="n_e_238" type="car" route="n_e" depart="397" departLane="random" departSpeed="10" />
    <vehicle id="n_s_239" type="car" route="n_s" depart="398" departLane="random" departSpeed="10" />
    <vehicle id="w_e_240" type="car" route="w_e" depart="400" departLane="random" departSpeed="10" />
    <vehicle id="n_w_241" type="car" route="n_w" depart="402" departLane="random" departSpeed="10" />
    <vehicle id="w_s_242" type="car" route="w_s" depart="404" departLane="random" departSpeed="10" />
    <vehicle id="n_e_243" type="car" route="n_e" depart="405" departLane="random" departSpeed="10" />
    <vehicle id="n_w_244" type="car" route="n_w" depart="407" departLane="random" departSpeed="10" />
    <vehicle id="s_e_245" type="car" route="s_e" depart="409" departLane="random" departSpeed="10" />
    <vehicle id="n_w_246" type="car" route="n_w" depart="410" departLane="random" departSpeed="10" />
    <vehicle id="s_e_247" type="car" route="s_e" depart="412" departLane="random" departSpeed="10" />
    <vehicle id="e_s_248" type="car" route="e_s" depart="414" departLane="random" departSpeed="10" />
    <vehicle id="n_e_249" type="car" route="n_e" depart="415" departLane="random" departSpeed="10" />
    <vehicle id="w_s_250" type="car" route="w_s" depart="417" departLane="random" departSpeed="10" />
    <vehicle id="w_s_251" type="car" route="w_s" depart="419" departLane="random" departSpeed="10" />
    <vehicle id="w_s_252" type="car" route="w_s" depart="420" departLane="random" departSpeed="10" />
    <vehicle id="e_n_253" type="car" route="e_n" depart="422" departLane="random" departSpeed="10" />
    <vehicle id="n_e_254" type="car" route="n_e" depart="424" departLane="random" departSpeed="10" />
    <vehicle id="w_n_255" type="car" route="w_n" depart="425" departLane="random" departSpeed="10" />
    <vehicle id="n_w_256" type="car" route="n_w" depart="427" departLane="random" departSpeed="10" />
    <vehicle id="n_w_257" type="car" route="n_w" depart="429" departLane="random" departSpeed="10" />
    <vehicle id="w_n_258" type="car" route="w_n" depart="430" departLane="random" departSpeed="10" />
    <vehicle id="n_s_259" type="car" route="n_s" depart="432" departLane="random" departSpeed="10" />
    <vehicle id="s_e_260" type="car" route="s_e" depart="434" departLane="random" departSpeed="10" />
    <vehicle id="s_e_261" type="car" route="s_e" depart="435" departLane="random" departSpeed="10" />
    <vehicle id="w_e_262" type="car" route="w_e" depart="437" departLane="random" departSpeed="10" />
    <vehicle id="n_w_263" type="car" route="n_w" depart="439" departLane="random" departSpeed="10" />
    <vehicle id="w_s_264" type="car" route="w_s" depart="440" departLane="random" departSpeed="10" />
    <vehicle id="s_e_265" type="car" route="s_e" depart="442" departLane="random" departSpeed="10" />
    <vehicle id="e_w_266" type="car" route="e_w" depart="444" departLane="random" departSpeed="10" />
    <vehicle id="s_w_267" type="car" route="s_w" depart="445" departLane="random" departSpeed="10" />
    <vehicle id="n_w_268" type="car" route="n_w" depart="447" departLane="random" departSpeed="10" />
    <vehicle id="s_w_269" type="car" route="s_w" depart="449" departLane="random" departSpeed="10" />
    <vehicle id="w_e_270" type="car" route="w_e" depart="450" departLane="random" departSpeed="10" />
    <vehicle id="e_n_271" type="car" route="e_n" depart="452" departLane="random" departSpeed="10" />
    <vehicle id="e_n_272" type="car" route="e_n" depart="454" departLane="random" departSpeed="10" />
    <vehicle id="w_e_273" type="car" route="w_e" depart="455" departLane="random" departSpeed="10" />
    <vehicle id="w_e_274" type="car" route="w_e" depart="457" departLane="random" departSpeed="10" />
    <vehicle id="s_n_275" type="car" route="s_n" depart="459" departLane="random" departSpeed="10" />
    <vehicle id="w_s_276" type="car" route="w_s" depart="460" departLane="random" departSpeed="10" />
    <vehicle id="n_w_277" type="car" route="n_w" depart="462" departLane="random" departSpeed="10" />
    <vehicle id="w_e_278" type="car" route="w_e" depart="464" departLane="random" departSpeed="10" />
    <vehicle id="n_s_279" type="car" route="n_s" depart="465" departLane="random" departSpeed="10" />
    <vehicle id="e_n_280" type="car" route="e_n" depart="467" departLane="random" departSpeed="10" />
    <vehicle id="n_s_281" type="car" route="n_s" depart="469" departLane="random" departSpeed="10" />
    <vehicle id="n_s_282" type="car" route="n_s" depart="470" departLane="random" departSpeed="10" />
    <vehicle id="s_e_283" type="car" route="s_e" depart="472" departLane="random" departSpeed="10" />
    <vehicle id="s_w_284" type="car" route="s_w" depart="474" departLane="random" departSpeed="10" />
    <vehicle id="e_w_285" type="car" route="e_w" depart="475" departLane="random" departSpeed="10" />
    <vehicle id="s_w_286" type="car" route="s_w" depart="477" departLane="random" departSpeed="10" />
    <vehicle id="s_w_287" type="car" route="s_w" depart="479" departLane="random" departSpeed="10" />